version 3
run NonQosIPv6-0-20250403-23:15:44-15396
attr configname NonQosIPv6
attr datetime 20250403-23:15:44
attr datetimef 20250403-231544
attr experiment NonQosIPv6
attr inifile omnetpp.ini
attr iterationvars ""
attr iterationvarsd ""
attr iterationvarsf ""
attr measurement ""
attr network QosShowcaseIPv6
attr processid 15396
attr repetition 0
attr replication #0
attr resultdir results
attr runnumber 0
attr seedset 0
config image-path ../../inet-master/images
config network QosShowcaseIPv6
config sim-time-limit 10s
config *.ap.hasIpv4 false
config *.server.hasIpv4 false
config *.client.hasIpv4 false
config *.ap.hasIpv6 true
config *.server.hasIpv6 true
config *.client.hasIpv6 true
config *.configurator.assignAddresses true
config *.configurator.useAutoConfig true
config *.configurator.addStaticRoutes false
config *.*.wlan[*].bitrate 54Mbps
config *.client.numApps 4
config *.client.app[*].typename UdpBasicApp
config *.client.app[*].destAddresses "\"server\""
config *.client.app[*].startTime 1.0s+this.sendInterval*index/4
config *.client.app[*].stopTime 6.0s
config *.client.app[0].destPort 21
config *.client.app[1].destPort 80
config *.client.app[2].destPort 4000
config *.client.app[3].destPort 5000
config *.client.app[0].packetName "\"background\""
config *.client.app[1].packetName "\"best effort\""
config *.client.app[2].packetName "\"video\""
config *.client.app[3].packetName "\"voice\""
config *.server.numApps 4
config *.server.app[*].typename UdpSink
config *.server.app[0].localPort 21
config *.server.app[1].localPort 80
config *.server.app[2].localPort 4000
config *.server.app[3].localPort 5000
config *.client.app[0].messageLength 900B
config *.client.app[0].sendInterval normal(300us,10us)
config *.client.app[1].messageLength 900B
config *.client.app[1].sendInterval normal(250us,10us)
config *.client.app[2].messageLength 600B
config *.client.app[2].sendInterval normal(1ms,10us)
config *.client.app[3].messageLength 125B
config *.client.app[3].sendInterval normal(10ms,10us)
config *.client.app[*].recordScalar true
config *.client.app[*].recordVector true
config *.server.app[*].recordScalar true
config *.server.app[*].recordVector true

par QosShowcaseIPv6.configurator typename "\"inet.networklayer.configurator.ipv6.Ipv6FlatNetworkConfigurator\""
par QosShowcaseIPv6.ap.radioIn[0].channel typename "\"ned.IdealChannel\""
par QosShowcaseIPv6.ap.interfaceTable typename "\"inet.networklayer.common.InterfaceTable\""
par QosShowcaseIPv6.ap.interfaceTable displayAddresses false
par QosShowcaseIPv6.ap.macTable typename "\"inet.linklayer.ethernet.common.MacForwardingTable\""
par QosShowcaseIPv6.ap.macTable agingTime 120s
attr unit s
par QosShowcaseIPv6.ap.macTable forwardingTable []
attr mutable ""
par QosShowcaseIPv6.ap.macTable forwardingTableFile "\"\""
par QosShowcaseIPv6.ap.macTable interfaceTableModule "\"QosShowcaseIPv6.ap.interfaceTable\""
par QosShowcaseIPv6.ap.macTable displayStringTextFormat "\"addr: %a\\nvlan: %v\""
par QosShowcaseIPv6.ap.mobility typename "\"inet.mobility.static.StationaryMobility\""
par QosShowcaseIPv6.ap.mobility subjectModule "\"^\""
par QosShowcaseIPv6.ap.mobility coordinateSystemModule "\"\""
par QosShowcaseIPv6.ap.mobility displayStringTextFormat "\"p: %p\\nv: %v\""
attr mutable ""
par QosShowcaseIPv6.ap.mobility updateDisplayString true
par QosShowcaseIPv6.ap.mobility constraintAreaMinX "-inf m"
attr unit m
par QosShowcaseIPv6.ap.mobility constraintAreaMinY "-inf m"
attr unit m
par QosShowcaseIPv6.ap.mobility constraintAreaMinZ "-inf m"
attr unit m
par QosShowcaseIPv6.ap.mobility constraintAreaMaxX "inf m"
attr unit m
par QosShowcaseIPv6.ap.mobility constraintAreaMaxY "inf m"
attr unit m
par QosShowcaseIPv6.ap.mobility constraintAreaMaxZ "inf m"
attr unit m
par QosShowcaseIPv6.ap.mobility initialX "nan m"
attr unit m
par QosShowcaseIPv6.ap.mobility initialY "nan m"
attr unit m
par QosShowcaseIPv6.ap.mobility initialZ 0m
attr unit m
par QosShowcaseIPv6.ap.mobility initialLatitude "nan deg"
attr unit deg
par QosShowcaseIPv6.ap.mobility initialLongitude "nan deg"
attr unit deg
par QosShowcaseIPv6.ap.mobility initialAltitude 0m
attr unit m
par QosShowcaseIPv6.ap.mobility initialHeading 0deg
attr unit deg
par QosShowcaseIPv6.ap.mobility initialElevation 0deg
attr unit deg
par QosShowcaseIPv6.ap.mobility initialBank 0deg
attr unit deg
par QosShowcaseIPv6.ap.mobility initFromDisplayString true
par QosShowcaseIPv6.ap.mobility updateFromDisplayString true
par QosShowcaseIPv6.ap.li typename "\"inet.common.MessageDispatcher\""
par QosShowcaseIPv6.ap.li displayStringTextFormat "\"processed %p pk (%l)\""
par QosShowcaseIPv6.ap.li interfaceTableModule "\"QosShowcaseIPv6.ap.interfaceTable\""
par QosShowcaseIPv6.ap.li forwardServiceRegistration true
par QosShowcaseIPv6.ap.li forwardProtocolRegistration true
par QosShowcaseIPv6.ap.li interfaceMapping {}
par QosShowcaseIPv6.ap.li serviceMapping {}
par QosShowcaseIPv6.ap.li protocolMapping {}
par QosShowcaseIPv6.ap.wlan[0].radioIn.channel typename "\"ned.IdealChannel\""
par QosShowcaseIPv6.ap.wlan[0].llc.upperLayerOut.channel typename "\"ned.IdealChannel\""
par QosShowcaseIPv6.ap.wlan[0].upperLayerIn.channel typename "\"ned.IdealChannel\""
par QosShowcaseIPv6.ap.wlan[0].mib typename "\"inet.linklayer.ieee80211.mib.Ieee80211Mib\""
par QosShowcaseIPv6.ap.wlan[0].llc typename "\"inet.linklayer.ieee80211.portal.Ieee80211Portal\""
par QosShowcaseIPv6.ap.wlan[0].llc fcsMode "\"declared\""
attr enum declared,computed
par QosShowcaseIPv6.ap.wlan[0].mgmt typename "\"inet.linklayer.ieee80211.mgmt.Ieee80211MgmtAp\""
par QosShowcaseIPv6.ap.wlan[0].mgmt ssid "\"SSID\""
par QosShowcaseIPv6.ap.wlan[0].mgmt beaconInterval 0.1s
attr unit s
par QosShowcaseIPv6.ap.wlan[0].mgmt numAuthSteps 4
par QosShowcaseIPv6.ap.wlan[0].mgmt interfaceTableModule "\"QosShowcaseIPv6.ap.interfaceTable\""
par QosShowcaseIPv6.ap.wlan[0].mgmt radioModule "\"^.radio\""
par QosShowcaseIPv6.ap.wlan[0].mgmt mibModule "\"QosShowcaseIPv6.ap.wlan[0].mib\""
par QosShowcaseIPv6.ap.wlan[0].mgmt macModule "\"QosShowcaseIPv6.ap.wlan[0].mac\""
par QosShowcaseIPv6.ap.wlan[0].mac.dcf.channelAccess.pendingQueue typename "\"inet.linklayer.ieee80211.mac.queue.PendingQueue\""
par QosShowcaseIPv6.ap.wlan[0].mac.dcf.channelAccess.pendingQueue displayStringTextFormat "\"contains %p pk (%l) pushed %u\\npulled %o removed %r dropped %d\""
par QosShowcaseIPv6.ap.wlan[0].mac.dcf.channelAccess.pendingQueue packetCapacity 100
par QosShowcaseIPv6.ap.wlan[0].mac.dcf.channelAccess.pendingQueue dataCapacity -1b
attr unit b
par QosShowcaseIPv6.ap.wlan[0].mac.dcf.channelAccess.pendingQueue dropperClass "\"inet::queueing::PacketAtCollectionEndDropper\""
par QosShowcaseIPv6.ap.wlan[0].mac.dcf.channelAccess.pendingQueue comparatorClass "\"inet::ieee80211::MgmtOverDataComparator\""
par QosShowcaseIPv6.ap.wlan[0].mac.dcf.channelAccess.pendingQueue bufferModule "\"\""
scalar QosShowcaseIPv6.ap.wlan[0].mac.dcf.channelAccess.pendingQueue queueLength:last 0
attr autoWarmupFilter false
attr interpolationmode sample-hold
attr recordingmode last
attr source "warmup(atomic(constant0(packetPushEnded) + count(packetPushStarted) - count(packetPulled) - count(packetRemoved) - count(packetDropped)))"
attr title "queue length, last"
attr unit pk
scalar QosShowcaseIPv6.ap.wlan[0].mac.dcf.channelAccess.pendingQueue queueLength:max 1
attr autoWarmupFilter false
attr interpolationmode sample-hold
attr recordingmode max
attr source "warmup(atomic(constant0(packetPushEnded) + count(packetPushStarted) - count(packetPulled) - count(packetRemoved) - count(packetDropped)))"
attr title "queue length, max"
attr unit pk
scalar QosShowcaseIPv6.ap.wlan[0].mac.dcf.channelAccess.pendingQueue queueLength:timeavg 0.0032908344033612
attr autoWarmupFilter false
attr interpolationmode sample-hold
attr recordingmode timeavg
attr source "warmup(atomic(constant0(packetPushEnded) + count(packetPushStarted) - count(packetPulled) - count(packetRemoved) - count(packetDropped)))"
attr title "queue length, timeavg"
attr unit pk
scalar QosShowcaseIPv6.ap.wlan[0].mac.dcf.channelAccess.pendingQueue queueBitLength:last 0
attr autoWarmupFilter false
attr interpolationmode sample-hold
attr recordingmode last
attr source "warmup(atomic(constant0(packetPushEnded) + sum(packetLength(packetPushStarted)) - sum(packetLength(packetPulled)) - sum(packetLength(packetRemoved)) - sum(packetLength(packetDropped))))"
attr title "queue bit length, last"
attr unit b
scalar QosShowcaseIPv6.ap.wlan[0].mac.dcf.channelAccess.pendingQueue queueBitLength:max 864
attr autoWarmupFilter false
attr interpolationmode sample-hold
attr recordingmode max
attr source "warmup(atomic(constant0(packetPushEnded) + sum(packetLength(packetPushStarted)) - sum(packetLength(packetPulled)) - sum(packetLength(packetRemoved)) - sum(packetLength(packetDropped))))"
attr title "queue bit length, max"
attr unit b
scalar QosShowcaseIPv6.ap.wlan[0].mac.dcf.channelAccess.pendingQueue queueBitLength:timeavg 1.7848430818667
attr autoWarmupFilter false
attr interpolationmode sample-hold
attr recordingmode timeavg
attr source "warmup(atomic(constant0(packetPushEnded) + sum(packetLength(packetPushStarted)) - sum(packetLength(packetPulled)) - sum(packetLength(packetRemoved)) - sum(packetLength(packetDropped))))"
attr title "queue bit length, timeavg"
attr unit b
statistic QosShowcaseIPv6.ap.wlan[0].mac.dcf.channelAccess.pendingQueue queueingTime:histogram
field count 34
field mean 0.24323996180947
field stddev 0.5906080053529
field min 0
field max 2.001877415193
field sum 8.270158701522
field sqrsum 13.522621014285
attr interpolationmode none
attr recordingmode histogram
attr source queueingTime(packetPulled)
attr title "queueing times"
attr unit s
bin	-inf	0
bin	0	28
bin	0.05	0
bin	0.1	0
bin	0.15	0
bin	0.2	0
bin	0.25	0
bin	0.3	0
bin	0.35	0
bin	0.4	0
bin	0.45	0
bin	0.5	0
bin	0.55	0
bin	0.6	1
bin	0.65	0
bin	0.7	1
bin	0.75	0
bin	0.8	0
bin	0.85	0
bin	0.9	0
bin	0.95	0
bin	1	1
bin	1.05	0
bin	1.1	0
bin	1.15	0
bin	1.2	0
bin	1.25	0
bin	1.3	0
bin	1.35	0
bin	1.4	0
bin	1.45	0
bin	1.5	0
bin	1.55	0
bin	1.6	0
bin	1.65	0
bin	1.7	0
bin	1.75	0
bin	1.8	0
bin	1.85	1
bin	1.9	0
bin	1.95	0
bin	2	2
bin	2.05	0
bin	2.1	0
bin	2.15	0
bin	2.2	0
bin	2.25	0
bin	2.3	0
bin	2.35	0
bin	2.4	0
bin	2.45	0
bin	2.5	0
bin	2.55	0
scalar QosShowcaseIPv6.ap.wlan[0].mac.dcf.channelAccess.pendingQueue outgoingPackets:count 34
attr recordingmode count
attr source packetPulled
attr title "outgoing packets, count"
attr unit pk
scalar QosShowcaseIPv6.ap.wlan[0].mac.dcf.channelAccess.pendingQueue outgoingPacketLengths:sum 16576
attr interpolationmode none
attr recordingmode sum
attr source packetLength(packetPulled)
attr title "outgoing packet lengths, sum"
attr unit b
statistic QosShowcaseIPv6.ap.wlan[0].mac.dcf.channelAccess.pendingQueue outgoingPacketLengths:histogram
field count 34
field mean 487.52941176471
field stddev 168.69629071996
field min 272
field max 864
field sum 16576
field sqrsum 9020416
attr interpolationmode none
attr recordingmode histogram
attr source packetLength(packetPulled)
attr title "outgoing packet lengths"
attr unit b
bin	-inf	0
bin	120	0
bin	130	0
bin	140	0
bin	150	0
bin	160	0
bin	170	0
bin	180	0
bin	190	0
bin	200	0
bin	210	0
bin	220	0
bin	230	0
bin	240	0
bin	250	0
bin	260	0
bin	270	4
bin	280	0
bin	290	0
bin	300	0
bin	310	0
bin	320	0
bin	330	0
bin	340	0
bin	350	2
bin	360	0
bin	370	0
bin	380	0
bin	390	0
bin	400	0
bin	410	0
bin	420	0
bin	430	0
bin	440	22
bin	450	0
bin	460	0
bin	470	0
bin	480	0
bin	490	0
bin	500	0
bin	510	0
bin	520	0
bin	530	0
bin	540	0
bin	550	0
bin	560	0
bin	570	0
bin	580	0
bin	590	0
bin	600	0
bin	610	0
bin	620	0
bin	630	0
bin	640	0
bin	650	0
bin	660	0
bin	670	0
bin	680	0
bin	690	0
bin	700	0
bin	710	0
bin	720	0
bin	730	1
bin	740	0
bin	750	0
bin	760	0
bin	770	0
bin	780	0
bin	790	0
bin	800	2
bin	810	0
bin	820	0
bin	830	0
bin	840	0
bin	850	0
bin	860	3
bin	870	0
bin	880	0
bin	890	0
bin	900	0
bin	910	0
bin	920	0
bin	930	0
bin	940	0
bin	950	0
bin	960	0
bin	970	0
bin	980	0
bin	990	0
bin	1000	0
bin	1010	0
bin	1020	0
statistic QosShowcaseIPv6.ap.wlan[0].mac.dcf.channelAccess.pendingQueue flowQueueingTime:histogram
field count 0
field mean nan
field stddev nan
field min nan
field max nan
field sum 0
field sqrsum 0
attr interpolationmode none
attr recordingmode histogram
attr source queueingTime(demuxFlow(packetPulled))
attr title "flow queueing times"
attr unit s
bin	-inf	0
bin	0	0
bin	1	0
scalar QosShowcaseIPv6.ap.wlan[0].mac.dcf.channelAccess.pendingQueue incomingPackets:count 34
attr recordingmode count
attr source packetPushStarted
attr title "incoming packets, count"
attr unit pk
scalar QosShowcaseIPv6.ap.wlan[0].mac.dcf.channelAccess.pendingQueue incomingPacketLengths:sum 16576
attr interpolationmode none
attr recordingmode sum
attr source packetLength(packetPushStarted)
attr title "incoming packet lengths, sum"
attr unit b
statistic QosShowcaseIPv6.ap.wlan[0].mac.dcf.channelAccess.pendingQueue incomingPacketLengths:histogram
field count 34
field mean 487.52941176471
field stddev 168.69629071996
field min 272
field max 864
field sum 16576
field sqrsum 9020416
attr interpolationmode none
attr recordingmode histogram
attr source packetLength(packetPushStarted)
attr title "incoming packet lengths"
attr unit b
bin	-inf	0
bin	120	0
bin	130	0
bin	140	0
bin	150	0
bin	160	0
bin	170	0
bin	180	0
bin	190	0
bin	200	0
bin	210	0
bin	220	0
bin	230	0
bin	240	0
bin	250	0
bin	260	0
bin	270	4
bin	280	0
bin	290	0
bin	300	0
bin	310	0
bin	320	0
bin	330	0
bin	340	0
bin	350	2
bin	360	0
bin	370	0
bin	380	0
bin	390	0
bin	400	0
bin	410	0
bin	420	0
bin	430	0
bin	440	22
bin	450	0
bin	460	0
bin	470	0
bin	480	0
bin	490	0
bin	500	0
bin	510	0
bin	520	0
bin	530	0
bin	540	0
bin	550	0
bin	560	0
bin	570	0
bin	580	0
bin	590	0
bin	600	0
bin	610	0
bin	620	0
bin	630	0
bin	640	0
bin	650	0
bin	660	0
bin	670	0
bin	680	0
bin	690	0
bin	700	0
bin	710	0
bin	720	0
bin	730	1
bin	740	0
bin	750	0
bin	760	0
bin	770	0
bin	780	0
bin	790	0
bin	800	2
bin	810	0
bin	820	0
bin	830	0
bin	840	0
bin	850	0
bin	860	3
bin	870	0
bin	880	0
bin	890	0
bin	900	0
bin	910	0
bin	920	0
bin	930	0
bin	940	0
bin	950	0
bin	960	0
bin	970	0
bin	980	0
bin	990	0
bin	1000	0
bin	1010	0
bin	1020	0
scalar QosShowcaseIPv6.ap.wlan[0].mac.dcf.channelAccess.pendingQueue droppedPacketsQueueOverflow:count 0
attr interpolationmode none
attr recordingmode count
attr source packetDropReasonIsQueueOverflow(packetDropped)
attr title "dropped packets: queue overflow, count"
attr unit pk
scalar QosShowcaseIPv6.ap.wlan[0].mac.dcf.channelAccess.pendingQueue droppedPacketLengthsQueueOverflow:sum 0
attr interpolationmode none
attr recordingmode sum
attr source packetLength(packetDropReasonIsQueueOverflow(packetDropped))
attr title "dropped packet lengths: queue overflow, sum"
attr unit b
par QosShowcaseIPv6.ap.wlan[0].mac.dcf.channelAccess.inProgressFrames typename "\"inet.linklayer.ieee80211.mac.queue.InProgressFrames\""
par QosShowcaseIPv6.ap.wlan[0].mac.dcf.channelAccess.inProgressFrames pendingQueueModule "\"^.pendingQueue\""
par QosShowcaseIPv6.ap.wlan[0].mac.dcf.channelAccess.inProgressFrames originatorMacDataServiceModule "\"^.^.originatorMacDataService\""
par QosShowcaseIPv6.ap.wlan[0].mac.dcf.channelAccess.inProgressFrames ackHandlerModule "\"^.^.ackHandler\""
statistic QosShowcaseIPv6.ap.wlan[0].mac.dcf.channelAccess.inProgressFrames queueingTime:histogram
field count 34
field mean 5.5516108705882e-05
field stddev 1.8313033105025e-05
field min 4.2e-05
field max 9.0943462e-05
field sum 0.001887547696
field sqrsum 1.1585642006836e-07
attr interpolationmode none
attr recordingmode histogram
attr source queueingTime(packetDequeued)
attr title "queueing times"
bin	-inf	0
bin	2.9e-05	0
bin	3e-05	0
bin	3.1e-05	0
bin	3.2e-05	0
bin	3.3e-05	0
bin	3.4e-05	0
bin	3.5e-05	0
bin	3.6e-05	0
bin	3.7e-05	0
bin	3.8e-05	0
bin	3.9e-05	0
bin	4e-05	0
bin	4.1e-05	3
bin	4.2e-05	0
bin	4.3e-05	0
bin	4.4e-05	0
bin	4.5e-05	23
bin	4.6e-05	0
bin	4.7e-05	0
bin	4.8e-05	0
bin	4.9e-05	0
bin	5e-05	0
bin	5.1e-05	0
bin	5.2e-05	0
bin	5.3e-05	0
bin	5.4e-05	0
bin	5.5e-05	0
bin	5.6e-05	0
bin	5.7e-05	0
bin	5.8e-05	0
bin	5.9e-05	0
bin	6e-05	0
bin	6.1e-05	0
bin	6.2e-05	0
bin	6.3e-05	0
bin	6.4e-05	0
bin	6.5e-05	0
bin	6.6e-05	0
bin	6.7e-05	0
bin	6.8e-05	0
bin	6.9e-05	0
bin	7e-05	0
bin	7.1e-05	0
bin	7.2e-05	0
bin	7.3e-05	0
bin	7.4e-05	0
bin	7.5e-05	0
bin	7.6e-05	0
bin	7.7e-05	0
bin	7.8e-05	0
bin	7.9e-05	0
bin	8e-05	0
bin	8.1e-05	0
bin	8.2e-05	0
bin	8.3e-05	0
bin	8.4e-05	0
bin	8.5e-05	0
bin	8.6e-05	6
bin	8.7e-05	0
bin	8.8e-05	0
bin	8.9e-05	0
bin	9e-05	2
bin	9.1e-05	0
bin	9.2e-05	0
bin	9.3e-05	0
bin	9.4e-05	0
bin	9.5e-05	0
bin	9.6e-05	0
bin	9.7e-05	0
bin	9.8e-05	0
bin	9.9e-05	0
bin	0.0001	0
bin	0.000101	0
bin	0.000102	0
bin	0.000103	0
bin	0.000104	0
scalar QosShowcaseIPv6.ap.wlan[0].mac.dcf.channelAccess.inProgressFrames queueLength:max 1
attr autoWarmupFilter false
attr interpolationmode sample-hold
attr recordingmode max
attr source "warmup(count(packetEnqueued) - count(packetDequeued))"
attr title "queue length, max"
scalar QosShowcaseIPv6.ap.wlan[0].mac.dcf.channelAccess.inProgressFrames queueLength:timeavg 0.00094286686338523
attr autoWarmupFilter false
attr interpolationmode sample-hold
attr recordingmode timeavg
attr source "warmup(count(packetEnqueued) - count(packetDequeued))"
attr title "queue length, timeavg"
par QosShowcaseIPv6.ap.wlan[0].mac.dcf.channelAccess.contention typename "\"inet.linklayer.ieee80211.mac.contention.Contention\""
par QosShowcaseIPv6.ap.wlan[0].mac.dcf.channelAccess.contention initialChannelBusy true
par QosShowcaseIPv6.ap.wlan[0].mac.dcf.channelAccess.contention backoffOptimization true
scalar QosShowcaseIPv6.ap.wlan[0].mac.dcf.channelAccess.contention channelAccessGranted:count 34
attr recordingmode count
attr title "channel access granted, count"
scalar QosShowcaseIPv6.ap.wlan[0].mac.dcf.channelAccess.contention stateChanged:count 378
attr enum IDLE,DEFER,IFS_AND_BACKOFF
attr interpolationmode none
attr recordingmode count
attr title "contention state changed, count"
attr type enum
par QosShowcaseIPv6.ap.wlan[0].mac.dcf.channelAccess typename "\"inet.linklayer.ieee80211.mac.channelaccess.Dcaf\""
par QosShowcaseIPv6.ap.wlan[0].mac.dcf.channelAccess difsn -1
par QosShowcaseIPv6.ap.wlan[0].mac.dcf.channelAccess cwMin -1
par QosShowcaseIPv6.ap.wlan[0].mac.dcf.channelAccess cwMax -1
par QosShowcaseIPv6.ap.wlan[0].mac.dcf.channelAccess rxModule "\"^.^.rx\""
scalar QosShowcaseIPv6.ap.wlan[0].mac.dcf.channelAccess channelOwnershipChanged:count 68
attr interpolationmode sample-hold
attr recordingmode count
attr title "channel ownership, count"
par QosShowcaseIPv6.ap.wlan[0].mac.dcf.originatorMacDataService.fragmentationPolicy typename "\"inet.linklayer.ieee80211.mac.fragmentation.BasicFragmentationPolicy\""
par QosShowcaseIPv6.ap.wlan[0].mac.dcf.originatorMacDataService.fragmentationPolicy fragmentationThreshold 1500B
attr unit B
par QosShowcaseIPv6.ap.wlan[0].mac.dcf.originatorMacDataService typename "\"inet.linklayer.ieee80211.mac.originator.OriginatorMacDataService\""
scalar QosShowcaseIPv6.ap.wlan[0].mac.dcf.originatorMacDataService packetAggregated:count 0
attr recordingmode count
attr title "packets aggregated, count"
scalar QosShowcaseIPv6.ap.wlan[0].mac.dcf.originatorMacDataService packetFragmented:count 0
attr recordingmode count
attr title "packets fragmented, count"
par QosShowcaseIPv6.ap.wlan[0].mac.dcf.recipientMacDataService typename "\"inet.linklayer.ieee80211.mac.recipient.RecipientMacDataService\""
scalar QosShowcaseIPv6.ap.wlan[0].mac.dcf.recipientMacDataService packetDropDuplicateDetected:count 0
attr interpolationmode none
attr recordingmode count
attr source packetDropReasonIsDuplicateDetected(packetDropped)
attr title "packet drops: duplicate detected, count"
scalar QosShowcaseIPv6.ap.wlan[0].mac.dcf.recipientMacDataService packetDropDuplicateDetected:sum(packetBytes) 0
attr interpolationmode none
attr recordingmode sum(packetBytes)
attr source packetDropReasonIsDuplicateDetected(packetDropped)
attr title "packet drops: duplicate detected, sum(packetBytes)"
scalar QosShowcaseIPv6.ap.wlan[0].mac.dcf.recipientMacDataService packetDeaggregated:count 0
attr recordingmode count
attr title "packets deaggregated, count"
scalar QosShowcaseIPv6.ap.wlan[0].mac.dcf.recipientMacDataService packetDefragmented:count 14
attr recordingmode count
attr title "packets defragmented, count"
par QosShowcaseIPv6.ap.wlan[0].mac.dcf.rateSelection typename "\"inet.linklayer.ieee80211.mac.rateselection.RateSelection\""
par QosShowcaseIPv6.ap.wlan[0].mac.dcf.rateSelection rateControlModule "\"^.rateControl\""
par QosShowcaseIPv6.ap.wlan[0].mac.dcf.rateSelection multicastFrameBitrate -1bps
attr unit bps
par QosShowcaseIPv6.ap.wlan[0].mac.dcf.rateSelection responseAckFrameBitrate -1bps
attr unit bps
par QosShowcaseIPv6.ap.wlan[0].mac.dcf.rateSelection responseCtsFrameBitrate -1bps
attr unit bps
par QosShowcaseIPv6.ap.wlan[0].mac.dcf.rateSelection dataFrameBitrate 5.4e+07bps
attr unit bps
par QosShowcaseIPv6.ap.wlan[0].mac.dcf.rateSelection dataFrameBandwidth "nan Hz"
attr unit Hz
par QosShowcaseIPv6.ap.wlan[0].mac.dcf.rateSelection dataFrameNumSpatialStreams -1
par QosShowcaseIPv6.ap.wlan[0].mac.dcf.rateSelection mgmtFrameBitrate -1bps
attr unit bps
par QosShowcaseIPv6.ap.wlan[0].mac.dcf.rateSelection controlFrameBitrate -1bps
attr unit bps
par QosShowcaseIPv6.ap.wlan[0].mac.dcf.recoveryProcedure typename "\"inet.linklayer.ieee80211.mac.originator.NonQosRecoveryProcedure\""
par QosShowcaseIPv6.ap.wlan[0].mac.dcf.recoveryProcedure cwCalculatorModule "\"^.channelAccess\""
par QosShowcaseIPv6.ap.wlan[0].mac.dcf.recoveryProcedure rtsPolicyModule "\"^.rtsPolicy\""
par QosShowcaseIPv6.ap.wlan[0].mac.dcf.recoveryProcedure shortRetryLimit 7
par QosShowcaseIPv6.ap.wlan[0].mac.dcf.recoveryProcedure longRetryLimit 4
scalar QosShowcaseIPv6.ap.wlan[0].mac.dcf.recoveryProcedure retryLimitReached:count 0
attr recordingmode count
attr title "retry limit reached, count"
par QosShowcaseIPv6.ap.wlan[0].mac.dcf.originatorProtectionMechanism typename "\"inet.linklayer.ieee80211.mac.protectionmechanism.OriginatorProtectionMechanism\""
par QosShowcaseIPv6.ap.wlan[0].mac.dcf.originatorProtectionMechanism rateSelectionModule "\"^.rateSelection\""
par QosShowcaseIPv6.ap.wlan[0].mac.dcf.ackHandler typename "\"inet.linklayer.ieee80211.mac.originator.AckHandler\""
par QosShowcaseIPv6.ap.wlan[0].mac.dcf.originatorAckPolicy typename "\"inet.linklayer.ieee80211.mac.originator.OriginatorAckPolicy\""
par QosShowcaseIPv6.ap.wlan[0].mac.dcf.originatorAckPolicy rateSelectionModule "\"^.rateSelection\""
par QosShowcaseIPv6.ap.wlan[0].mac.dcf.originatorAckPolicy ackTimeout -1s
attr unit s
par QosShowcaseIPv6.ap.wlan[0].mac.dcf.recipientAckPolicy typename "\"inet.linklayer.ieee80211.mac.recipient.RecipientAckPolicy\""
par QosShowcaseIPv6.ap.wlan[0].mac.dcf.recipientAckPolicy rateSelectionModule "\"^.rateSelection\""
par QosShowcaseIPv6.ap.wlan[0].mac.dcf.rtsPolicy typename "\"inet.linklayer.ieee80211.mac.originator.RtsPolicy\""
par QosShowcaseIPv6.ap.wlan[0].mac.dcf.rtsPolicy rateSelectionModule "\"^.rateSelection\""
par QosShowcaseIPv6.ap.wlan[0].mac.dcf.rtsPolicy ctsTimeout -1s
attr unit s
par QosShowcaseIPv6.ap.wlan[0].mac.dcf.rtsPolicy rtsThreshold 2346B
attr unit B
par QosShowcaseIPv6.ap.wlan[0].mac.dcf.ctsPolicy typename "\"inet.linklayer.ieee80211.mac.recipient.CtsPolicy\""
par QosShowcaseIPv6.ap.wlan[0].mac.dcf.ctsPolicy rxModule "\"^.^.rx\""
par QosShowcaseIPv6.ap.wlan[0].mac.dcf.ctsPolicy rateSelectionModule "\"^.rateSelection\""
par QosShowcaseIPv6.ap.wlan[0].mac.dcf typename "\"inet.linklayer.ieee80211.mac.coordinationfunction.Dcf\""
par QosShowcaseIPv6.ap.wlan[0].mac.dcf rxModule "\"^.rx\""
par QosShowcaseIPv6.ap.wlan[0].mac.dcf txModule "\"^.tx\""
scalar QosShowcaseIPv6.ap.wlan[0].mac.dcf packetReceivedFromPeer:count 22
attr interpolationmode none
attr recordingmode count
attr title "packets received, count"
scalar QosShowcaseIPv6.ap.wlan[0].mac.dcf packetReceivedFromPeer:sum(packetBytes) 1016
attr interpolationmode none
attr recordingmode sum(packetBytes)
attr title "packets received, sum(packetBytes)"
scalar QosShowcaseIPv6.ap.wlan[0].mac.dcf packetReceivedFromPeerUnicast:count 20
attr interpolationmode none
attr recordingmode count
attr source ieee80211Unicast(packetReceivedFromPeer)
attr title "packets received: unicast, count"
scalar QosShowcaseIPv6.ap.wlan[0].mac.dcf packetReceivedFromPeerUnicast:sum(packetBytes) 936
attr interpolationmode none
attr recordingmode sum(packetBytes)
attr source ieee80211Unicast(packetReceivedFromPeer)
attr title "packets received: unicast, sum(packetBytes)"
scalar QosShowcaseIPv6.ap.wlan[0].mac.dcf packetReceivedFromPeerMulticast:count 2
attr interpolationmode none
attr recordingmode count
attr source ieee80211Multicast(packetReceivedFromPeer)
attr title "packets received: multicast, count"
scalar QosShowcaseIPv6.ap.wlan[0].mac.dcf packetReceivedFromPeerMulticast:sum(packetBytes) 80
attr interpolationmode none
attr recordingmode sum(packetBytes)
attr source ieee80211Multicast(packetReceivedFromPeer)
attr title "packets received: multicast, sum(packetBytes)"
scalar QosShowcaseIPv6.ap.wlan[0].mac.dcf packetReceivedFromPeerBroadcast:count 2
attr interpolationmode none
attr recordingmode count
attr source ieee80211Broadcast(packetReceivedFromPeer)
attr title "packets received: broadcast, count"
scalar QosShowcaseIPv6.ap.wlan[0].mac.dcf packetReceivedFromPeerBroadcast:sum(packetBytes) 80
attr interpolationmode none
attr recordingmode sum(packetBytes)
attr source ieee80211Broadcast(packetReceivedFromPeer)
attr title "packets received: broadcast, sum(packetBytes)"
scalar QosShowcaseIPv6.ap.wlan[0].mac.dcf packetReceivedFromPeerWithRetry:count 0
attr interpolationmode none
attr recordingmode count
attr source ieee80211Retry(packetReceivedFromPeer)
attr title "packets received: with retry, count"
scalar QosShowcaseIPv6.ap.wlan[0].mac.dcf packetReceivedFromPeerWithRetry:sum(packetBytes) 0
attr interpolationmode none
attr recordingmode sum(packetBytes)
attr source ieee80211Retry(packetReceivedFromPeer)
attr title "packets received: with retry, sum(packetBytes)"
scalar QosShowcaseIPv6.ap.wlan[0].mac.dcf packetReceivedFromPeerWithoutRetry:count 22
attr interpolationmode none
attr recordingmode count
attr source ieee80211NotRetry(packetReceivedFromPeer)
attr title "packets received: without retry, count"
scalar QosShowcaseIPv6.ap.wlan[0].mac.dcf packetReceivedFromPeerWithoutRetry:sum(packetBytes) 1016
attr interpolationmode none
attr recordingmode sum(packetBytes)
attr source ieee80211NotRetry(packetReceivedFromPeer)
attr title "packets received: without retry, sum(packetBytes)"
scalar QosShowcaseIPv6.ap.wlan[0].mac.dcf packetSentToPeer:count 46
attr interpolationmode none
attr recordingmode count
attr title "packets sent, count"
scalar QosShowcaseIPv6.ap.wlan[0].mac.dcf packetSentToPeer:sum(packetBytes) 2240
attr interpolationmode none
attr recordingmode sum(packetBytes)
attr title "packets sent, sum(packetBytes)"
scalar QosShowcaseIPv6.ap.wlan[0].mac.dcf packetSentToPeerUnicast:count 20
attr interpolationmode none
attr recordingmode count
attr source ieee80211Unicast(packetSentToPeer)
attr title "packets sent: unicast, count"
scalar QosShowcaseIPv6.ap.wlan[0].mac.dcf packetSentToPeerUnicast:sum(packetBytes) 504
attr interpolationmode none
attr recordingmode sum(packetBytes)
attr source ieee80211Unicast(packetSentToPeer)
attr title "packets sent: unicast, sum(packetBytes)"
scalar QosShowcaseIPv6.ap.wlan[0].mac.dcf packetSentToPeerMulticast:count 26
attr interpolationmode none
attr recordingmode count
attr source ieee80211Multicast(packetSentToPeer)
attr title "packets sent: multicast, count"
scalar QosShowcaseIPv6.ap.wlan[0].mac.dcf packetSentToPeerMulticast:sum(packetBytes) 1736
attr interpolationmode none
attr recordingmode sum(packetBytes)
attr source ieee80211Multicast(packetSentToPeer)
attr title "packets sent: multicast, sum(packetBytes)"
scalar QosShowcaseIPv6.ap.wlan[0].mac.dcf packetSentToPeerBroadcast:count 26
attr interpolationmode none
attr recordingmode count
attr source ieee80211Broadcast(packetSentToPeer)
attr title "packets sent: broadcast , count"
scalar QosShowcaseIPv6.ap.wlan[0].mac.dcf packetSentToPeerBroadcast:sum(packetBytes) 1736
attr interpolationmode none
attr recordingmode sum(packetBytes)
attr source ieee80211Broadcast(packetSentToPeer)
attr title "packets sent: broadcast , sum(packetBytes)"
scalar QosShowcaseIPv6.ap.wlan[0].mac.dcf packetSentToPeerWithRetry:count 0
attr interpolationmode none
attr recordingmode count
attr source ieee80211Retry(packetSentToPeer)
attr title "packets sent: with retry, count"
scalar QosShowcaseIPv6.ap.wlan[0].mac.dcf packetSentToPeerWithRetry:sum(packetBytes) 0
attr interpolationmode none
attr recordingmode sum(packetBytes)
attr source ieee80211Retry(packetSentToPeer)
attr title "packets sent: with retry, sum(packetBytes)"
scalar QosShowcaseIPv6.ap.wlan[0].mac.dcf packetSentToPeerWithoutRetry:count 46
attr interpolationmode none
attr recordingmode count
attr source ieee80211NotRetry(packetSentToPeer)
attr title "packets sent: without retry, count"
scalar QosShowcaseIPv6.ap.wlan[0].mac.dcf packetSentToPeerWithoutRetry:sum(packetBytes) 2240
attr interpolationmode none
attr recordingmode sum(packetBytes)
attr source ieee80211NotRetry(packetSentToPeer)
attr title "packets sent: without retry, sum(packetBytes)"
scalar QosShowcaseIPv6.ap.wlan[0].mac.dcf packetDrop:count 0
attr interpolationmode none
attr recordingmode count
attr source packetDropped
attr title "packet drops, count"
scalar QosShowcaseIPv6.ap.wlan[0].mac.dcf packetDrop:sum(packetBytes) 0
attr interpolationmode none
attr recordingmode sum(packetBytes)
attr source packetDropped
attr title "packet drops, sum(packetBytes)"
scalar QosShowcaseIPv6.ap.wlan[0].mac.dcf packetDropNotAddressedToUs:count 0
attr interpolationmode none
attr recordingmode count
attr source packetDropReasonIsNotAddressedToUs(packetDropped)
attr title "packet drops: not addressed to us, count"
scalar QosShowcaseIPv6.ap.wlan[0].mac.dcf packetDropNotAddressedToUs:sum(packetBytes) 0
attr interpolationmode none
attr recordingmode sum(packetBytes)
attr source packetDropReasonIsNotAddressedToUs(packetDropped)
attr title "packet drops: not addressed to us, sum(packetBytes)"
scalar QosShowcaseIPv6.ap.wlan[0].mac.dcf packetDropQueueOverflow:count 0
attr interpolationmode none
attr recordingmode count
attr source packetDropReasonIsQueueOverflow(packetDropped)
attr title "packet drops: queue overflow, count"
scalar QosShowcaseIPv6.ap.wlan[0].mac.dcf packetDropQueueOverflow:sum(packetBytes) 0
attr interpolationmode none
attr recordingmode sum(packetBytes)
attr source packetDropReasonIsQueueOverflow(packetDropped)
attr title "packet drops: queue overflow, sum(packetBytes)"
scalar QosShowcaseIPv6.ap.wlan[0].mac.dcf packetDropRetryLimitReached:count 0
attr interpolationmode none
attr recordingmode count
attr source packetDropReasonIsRetryLimitReached(packetDropped)
attr title "packet drops: retry limit reached, count"
scalar QosShowcaseIPv6.ap.wlan[0].mac.dcf packetDropRetryLimitReached:sum(packetBytes) 0
attr interpolationmode none
attr recordingmode sum(packetBytes)
attr source packetDropReasonIsRetryLimitReached(packetDropped)
attr title "packet drops: retry limit reached, sum(packetBytes)"
scalar QosShowcaseIPv6.ap.wlan[0].mac.dcf linkBroken:count 0
attr interpolationmode none
attr recordingmode count
attr title "link breaks, count"
scalar QosShowcaseIPv6.ap.wlan[0].mac.dcf frameSequenceFinished:count 34
attr recordingmode count
attr title "finished frame sequences, count"
statistic QosShowcaseIPv6.ap.wlan[0].mac.dcf frameSequenceDuration:histogram
field count 34
field mean 5.5516108705882e-05
field stddev 1.8313033105025e-05
field min 4.2e-05
field max 9.0943462e-05
field sum 0.001887547696
field sqrsum 1.1585642006836e-07
attr recordingmode histogram
attr source frameSequenceDuration(frameSequenceFinished)
attr title "frame sequence durations"
bin	-inf	0
bin	2.9e-05	0
bin	3e-05	0
bin	3.1e-05	0
bin	3.2e-05	0
bin	3.3e-05	0
bin	3.4e-05	0
bin	3.5e-05	0
bin	3.6e-05	0
bin	3.7e-05	0
bin	3.8e-05	0
bin	3.9e-05	0
bin	4e-05	0
bin	4.1e-05	3
bin	4.2e-05	0
bin	4.3e-05	0
bin	4.4e-05	0
bin	4.5e-05	23
bin	4.6e-05	0
bin	4.7e-05	0
bin	4.8e-05	0
bin	4.9e-05	0
bin	5e-05	0
bin	5.1e-05	0
bin	5.2e-05	0
bin	5.3e-05	0
bin	5.4e-05	0
bin	5.5e-05	0
bin	5.6e-05	0
bin	5.7e-05	0
bin	5.8e-05	0
bin	5.9e-05	0
bin	6e-05	0
bin	6.1e-05	0
bin	6.2e-05	0
bin	6.3e-05	0
bin	6.4e-05	0
bin	6.5e-05	0
bin	6.6e-05	0
bin	6.7e-05	0
bin	6.8e-05	0
bin	6.9e-05	0
bin	7e-05	0
bin	7.1e-05	0
bin	7.2e-05	0
bin	7.3e-05	0
bin	7.4e-05	0
bin	7.5e-05	0
bin	7.6e-05	0
bin	7.7e-05	0
bin	7.8e-05	0
bin	7.9e-05	0
bin	8e-05	0
bin	8.1e-05	0
bin	8.2e-05	0
bin	8.3e-05	0
bin	8.4e-05	0
bin	8.5e-05	0
bin	8.6e-05	6
bin	8.7e-05	0
bin	8.8e-05	0
bin	8.9e-05	0
bin	9e-05	2
bin	9.1e-05	0
bin	9.2e-05	0
bin	9.3e-05	0
bin	9.4e-05	0
bin	9.5e-05	0
bin	9.6e-05	0
bin	9.7e-05	0
bin	9.8e-05	0
bin	9.9e-05	0
bin	0.0001	0
bin	0.000101	0
bin	0.000102	0
bin	0.000103	0
bin	0.000104	0
statistic QosShowcaseIPv6.ap.wlan[0].mac.dcf frameSequenceNumPackets:histogram
field count 34
field mean 1.2352941176471
field stddev 0.43056154520205
field min 1
field max 2
field sum 42
field sqrsum 58
attr recordingmode histogram
attr source frameSequenceNumPackets(frameSequenceFinished)
attr title "frame sequences: number of packets"
bin	-inf	0
bin	0	0
bin	1	26
bin	2	8
bin	3	0
par QosShowcaseIPv6.ap.wlan[0].mac.ds typename "\"inet.linklayer.ieee80211.mac.Ds\""
par QosShowcaseIPv6.ap.wlan[0].mac.ds mibModule "\"QosShowcaseIPv6.ap.wlan[0].mib\""
par QosShowcaseIPv6.ap.wlan[0].mac.rx typename "\"inet.linklayer.ieee80211.mac.Rx\""
par QosShowcaseIPv6.ap.wlan[0].mac.tx typename "\"inet.linklayer.ieee80211.mac.Tx\""
par QosShowcaseIPv6.ap.wlan[0].mac.tx rxModule "\"^.rx\""
par QosShowcaseIPv6.ap.wlan[0].mac typename "\"inet.linklayer.ieee80211.mac.Ieee80211Mac\""
par QosShowcaseIPv6.ap.wlan[0].mac interfaceTableModule "\"QosShowcaseIPv6.ap.interfaceTable\""
par QosShowcaseIPv6.ap.wlan[0].mac mibModule "\"QosShowcaseIPv6.ap.wlan[0].mib\""
par QosShowcaseIPv6.ap.wlan[0].mac modeSet "\"g(mixed)\""
attr enum a,b,g(erp),g(mixed),n(mixed-2.4Ghz),p,ac
par QosShowcaseIPv6.ap.wlan[0].mac fcsMode "\"declared\""
attr enum declared,computed
par QosShowcaseIPv6.ap.wlan[0].mac initialRadioMode "\"receiver\""
attr enum off,sleep,receiver,transmitter,transceiver
par QosShowcaseIPv6.ap.wlan[0].mac mtu 2304B
attr unit B
par QosShowcaseIPv6.ap.wlan[0].mac qosStation false
scalar QosShowcaseIPv6.ap.wlan[0].mac packetReceivedFromLower:count 22
attr interpolationmode none
attr recordingmode count
attr title "packets received from lower layer, count"
scalar QosShowcaseIPv6.ap.wlan[0].mac packetReceivedFromLower:sum(packetBytes) 1016
attr interpolationmode none
attr recordingmode sum(packetBytes)
attr title "packets received from lower layer, sum(packetBytes)"
scalar QosShowcaseIPv6.ap.wlan[0].mac packetSentToLower:count 46
attr interpolationmode none
attr recordingmode count
attr title "packets sent to lower layer, count"
scalar QosShowcaseIPv6.ap.wlan[0].mac packetSentToLower:sum(packetBytes) 2240
attr interpolationmode none
attr recordingmode sum(packetBytes)
attr title "packets sent to lower layer, sum(packetBytes)"
scalar QosShowcaseIPv6.ap.wlan[0].mac packetReceivedFromUpper:count 0
attr interpolationmode none
attr recordingmode count
attr title "packets received from upper layer, count"
scalar QosShowcaseIPv6.ap.wlan[0].mac packetReceivedFromUpper:sum(packetBytes) 0
attr interpolationmode none
attr recordingmode sum(packetBytes)
attr title "packets received from upper layer, sum(packetBytes)"
scalar QosShowcaseIPv6.ap.wlan[0].mac packetSentToUpper:count 6
attr interpolationmode none
attr recordingmode count
attr title "packets sent to upper layer, count"
scalar QosShowcaseIPv6.ap.wlan[0].mac packetSentToUpper:sum(packetBytes) 448
attr interpolationmode none
attr recordingmode sum(packetBytes)
attr title "packets sent to upper layer, sum(packetBytes)"
scalar QosShowcaseIPv6.ap.wlan[0].mac packetDrop:count 0
attr interpolationmode none
attr recordingmode count
attr source packetDropped
attr title "packet drops, count"
scalar QosShowcaseIPv6.ap.wlan[0].mac packetDrop:sum(packetBytes) 0
attr interpolationmode none
attr recordingmode sum(packetBytes)
attr source packetDropped
attr title "packet drops, sum(packetBytes)"
scalar QosShowcaseIPv6.ap.wlan[0].mac packetDropIncorrectlyReceived:count 0
attr interpolationmode none
attr recordingmode count
attr source packetDropReasonIsIncorrectlyReceived(packetDropped)
attr title "packet drops: incorrectly received, count"
scalar QosShowcaseIPv6.ap.wlan[0].mac packetDropIncorrectlyReceived:sum(packetBytes) 0
attr interpolationmode none
attr recordingmode sum(packetBytes)
attr source packetDropReasonIsIncorrectlyReceived(packetDropped)
attr title "packet drops: incorrectly received, sum(packetBytes)"
scalar QosShowcaseIPv6.ap.wlan[0].mac packetDropNotAddressedToUs:count 0
attr interpolationmode none
attr recordingmode count
attr source packetDropReasonIsNotAddressedToUs(packetDropped)
attr title "packet drops: not addressed to us, count"
scalar QosShowcaseIPv6.ap.wlan[0].mac packetDropNotAddressedToUs:sum(packetBytes) 0
attr interpolationmode none
attr recordingmode sum(packetBytes)
attr source packetDropReasonIsNotAddressedToUs(packetDropped)
attr title "packet drops: not addressed to us, sum(packetBytes)"
scalar QosShowcaseIPv6.ap.wlan[0].mac packetDropQueueOverflow:count 0
attr interpolationmode none
attr recordingmode count
attr source packetDropReasonIsQueueOverflow(packetDropped)
attr title "packet drops: queue overflow, count"
scalar QosShowcaseIPv6.ap.wlan[0].mac packetDropQueueOverflow:sum(packetBytes) 0
attr interpolationmode none
attr recordingmode sum(packetBytes)
attr source packetDropReasonIsQueueOverflow(packetDropped)
attr title "packet drops: queue overflow, sum(packetBytes)"
scalar QosShowcaseIPv6.ap.wlan[0].mac packetDropRetryLimitReached:count 0
attr interpolationmode none
attr recordingmode count
attr source packetDropReasonIsRetryLimitReached(packetDropped)
attr title "packet drops: retry limit reached, count"
scalar QosShowcaseIPv6.ap.wlan[0].mac packetDropRetryLimitReached:sum(packetBytes) 0
attr interpolationmode none
attr recordingmode sum(packetBytes)
attr source packetDropReasonIsRetryLimitReached(packetDropped)
attr title "packet drops: retry limit reached, sum(packetBytes)"
scalar QosShowcaseIPv6.ap.wlan[0].mac packetDropDuplicateDetected:count 0
attr interpolationmode none
attr recordingmode count
attr source packetDropReasonIsDuplicateDetected(packetDropped)
attr title "packet drops: duplicate detected, count"
scalar QosShowcaseIPv6.ap.wlan[0].mac packetDropDuplicateDetected:sum(packetBytes) 0
attr interpolationmode none
attr recordingmode sum(packetBytes)
attr source packetDropReasonIsDuplicateDetected(packetDropped)
attr title "packet drops: duplicate detected, sum(packetBytes)"
scalar QosShowcaseIPv6.ap.wlan[0].mac packetDropOther:count 0
attr interpolationmode none
attr recordingmode count
attr source packetDropReasonIsOther(packetDropped)
attr title "packet drops: other, count"
scalar QosShowcaseIPv6.ap.wlan[0].mac packetDropOther:sum(packetBytes) 0
attr interpolationmode none
attr recordingmode sum(packetBytes)
attr source packetDropReasonIsOther(packetDropped)
attr title "packet drops: other, sum(packetBytes)"
scalar QosShowcaseIPv6.ap.wlan[0].mac linkBroken:count 0
attr interpolationmode none
attr recordingmode count
attr title "link breaks, count"
par QosShowcaseIPv6.ap.wlan[0].radio.antenna typename "\"inet.physicallayer.wireless.common.antenna.IsotropicAntenna\""
par QosShowcaseIPv6.ap.wlan[0].radio.antenna mobilityModule "\"^.^.^.mobility\""
par QosShowcaseIPv6.ap.wlan[0].radio.antenna numAntennas 1
par QosShowcaseIPv6.ap.wlan[0].radio.transmitter.analogModel typename "\"inet.physicallayer.wireless.common.analogmodel.scalar.ScalarTransmitterAnalogModel\""
par QosShowcaseIPv6.ap.wlan[0].radio.transmitter.analogModel power 0.02W
attr unit W
par QosShowcaseIPv6.ap.wlan[0].radio.transmitter.analogModel centerFrequency "nan Hz"
attr unit Hz
par QosShowcaseIPv6.ap.wlan[0].radio.transmitter.analogModel bandwidth "nan Hz"
attr unit Hz
par QosShowcaseIPv6.ap.wlan[0].radio.transmitter typename "\"inet.physicallayer.wireless.ieee80211.packetlevel.Ieee80211Transmitter\""
par QosShowcaseIPv6.ap.wlan[0].radio.transmitter signalAnalogRepresentation "\"scalar\""
attr enum unitDisk,scalar,dimensional
par QosShowcaseIPv6.ap.wlan[0].radio.transmitter preambleDuration -1s
attr unit s
par QosShowcaseIPv6.ap.wlan[0].radio.transmitter headerLength 192b
attr unit b
par QosShowcaseIPv6.ap.wlan[0].radio.transmitter bitrate 5.4e+07bps
attr unit bps
par QosShowcaseIPv6.ap.wlan[0].radio.transmitter power 0.02W
attr unit W
par QosShowcaseIPv6.ap.wlan[0].radio.transmitter centerFrequency 2.412e+09Hz
attr unit Hz
par QosShowcaseIPv6.ap.wlan[0].radio.transmitter bandwidth "nan Hz"
attr unit Hz
par QosShowcaseIPv6.ap.wlan[0].radio.transmitter codeRate 1
par QosShowcaseIPv6.ap.wlan[0].radio.transmitter modulation "\"BPSK\""
par QosShowcaseIPv6.ap.wlan[0].radio.transmitter opMode "\"g(mixed)\""
attr enum a,b,g(erp),g(mixed),n(mixed-2.4Ghz),p,ac
par QosShowcaseIPv6.ap.wlan[0].radio.transmitter bandName "\"2.4 GHz\""
attr enum "2.4 GHz,5 GHz,5 GHz (20 MHz),5 GHz (40 MHz),5 GHz (80 MHz),5 GHz (160 MHz),5.9 GHz"
par QosShowcaseIPv6.ap.wlan[0].radio.transmitter channelNumber 0
par QosShowcaseIPv6.ap.wlan[0].radio.receiver.analogModel typename "\"inet.physicallayer.wireless.common.analogmodel.scalar.ScalarReceiverAnalogModel\""
par QosShowcaseIPv6.ap.wlan[0].radio.receiver.analogModel defaultCenterFrequency 2.412e+09Hz
attr unit Hz
par QosShowcaseIPv6.ap.wlan[0].radio.receiver.analogModel defaultBandwidth 2.2e+07Hz
attr unit Hz
par QosShowcaseIPv6.ap.wlan[0].radio.receiver.analogModel defaultSensitivity -85dBm
attr unit dBm
par QosShowcaseIPv6.ap.wlan[0].radio.receiver.errorModel typename "\"inet.physicallayer.wireless.ieee80211.packetlevel.errormodel.Ieee80211NistErrorModel\""
par QosShowcaseIPv6.ap.wlan[0].radio.receiver.errorModel corruptionMode "\"packet\""
attr enum packet,chunk,byte,bit
par QosShowcaseIPv6.ap.wlan[0].radio.receiver.errorModel snirMode "\"min\""
attr enum min,mean
par QosShowcaseIPv6.ap.wlan[0].radio.receiver.errorModel snirOffset 0dB
attr unit dB
par QosShowcaseIPv6.ap.wlan[0].radio.receiver typename "\"inet.physicallayer.wireless.ieee80211.packetlevel.Ieee80211Receiver\""
par QosShowcaseIPv6.ap.wlan[0].radio.receiver ignoreInterference false
par QosShowcaseIPv6.ap.wlan[0].radio.receiver signalAnalogRepresentation "\"scalar\""
attr enum unitDisk,scalar,dimensional
par QosShowcaseIPv6.ap.wlan[0].radio.receiver snirThreshold 4dB
attr unit dB
par QosShowcaseIPv6.ap.wlan[0].radio.receiver snirThresholdMode "\"min\""
attr enum min,mean
par QosShowcaseIPv6.ap.wlan[0].radio.receiver energyDetection -85dBm
attr unit dBm
par QosShowcaseIPv6.ap.wlan[0].radio.receiver sensitivity -85dBm
attr unit dBm
par QosShowcaseIPv6.ap.wlan[0].radio.receiver centerFrequency 2.412e+09Hz
attr unit Hz
par QosShowcaseIPv6.ap.wlan[0].radio.receiver bandwidth 2.2e+07Hz
attr unit Hz
par QosShowcaseIPv6.ap.wlan[0].radio.receiver modulation "\"BPSK\""
par QosShowcaseIPv6.ap.wlan[0].radio.receiver opMode "\"g(mixed)\""
attr enum a,b,g(erp),g(mixed),n(mixed-2.4Ghz),p,ac
par QosShowcaseIPv6.ap.wlan[0].radio.receiver bandName "\"2.4 GHz\""
attr enum "2.4 GHz,5 GHz,5 GHz (20 MHz),5 GHz (40 MHz),5 GHz (80 MHz),5 GHz (160 MHz),5.9 GHz"
par QosShowcaseIPv6.ap.wlan[0].radio.receiver channelNumber 0
par QosShowcaseIPv6.ap.wlan[0].radio typename "\"inet.physicallayer.wireless.ieee80211.packetlevel.Ieee80211Radio\""
par QosShowcaseIPv6.ap.wlan[0].radio radioMediumModule "\"radioMedium\""
par QosShowcaseIPv6.ap.wlan[0].radio energySourceModule "\"\""
par QosShowcaseIPv6.ap.wlan[0].radio initialRadioMode "\"off\""
attr enum off,sleep,receiver,transmitter,transceiver
par QosShowcaseIPv6.ap.wlan[0].radio switchingTimes "\"ms 0 0 0 0 0 0 0 0 0 0 0 0 0 0 0 0 0 0 0 0 0 0 0 0 0\""
par QosShowcaseIPv6.ap.wlan[0].radio sendRawBytes false
par QosShowcaseIPv6.ap.wlan[0].radio separateTransmissionParts false
par QosShowcaseIPv6.ap.wlan[0].radio separateReceptionParts false
par QosShowcaseIPv6.ap.wlan[0].radio displayCommunicationRange false
par QosShowcaseIPv6.ap.wlan[0].radio displayInterferenceRange false
par QosShowcaseIPv6.ap.wlan[0].radio signalAnalogRepresentation "\"scalar\""
attr enum unitDisk,scalar,dimensional
par QosShowcaseIPv6.ap.wlan[0].radio centerFrequency 2.412e+09Hz
attr unit Hz
par QosShowcaseIPv6.ap.wlan[0].radio bandwidth "nan Hz"
attr unit Hz
par QosShowcaseIPv6.ap.wlan[0].radio opMode "\"g(mixed)\""
attr enum a,b,g(erp),g(mixed),n(mixed-2.4Ghz),p,ac
par QosShowcaseIPv6.ap.wlan[0].radio bandName "\"2.4 GHz\""
attr enum "2.4 GHz,5 GHz,5 GHz (20 MHz),5 GHz (40 MHz),5 GHz (80 MHz),5 GHz (160 MHz),5.9 GHz"
par QosShowcaseIPv6.ap.wlan[0].radio channelNumber 0
par QosShowcaseIPv6.ap.wlan[0].radio crcMode "\"declared\""
attr enum declared,computed
statistic QosShowcaseIPv6.ap.wlan[0].radio minSnir:histogram
field count 22
field mean 9782.8877605193
field stddev 0
field min 9782.8877605193
field max 9782.8877605193
field sum 215223.53073142
field sqrsum 2105507644.5682
attr recordingmode histogram
attr source minimumSnir(packetSentToUpper)
attr title "Min SNIR"
bin	-inf	0
bin	9782.38	0
bin	9782.4	0
bin	9782.42	0
bin	9782.44	0
bin	9782.46	0
bin	9782.48	0
bin	9782.5	0
bin	9782.52	0
bin	9782.54	0
bin	9782.56	0
bin	9782.58	0
bin	9782.6	0
bin	9782.62	0
bin	9782.64	0
bin	9782.66	0
bin	9782.68	0
bin	9782.7	0
bin	9782.72	0
bin	9782.74	0
bin	9782.76	0
bin	9782.78	0
bin	9782.8	0
bin	9782.82	0
bin	9782.84	0
bin	9782.86	0
bin	9782.88	22
bin	9782.9	0
bin	9782.92	0
bin	9782.94	0
bin	9782.96	0
bin	9782.98	0
bin	9783	0
bin	9783.02	0
bin	9783.04	0
bin	9783.06	0
bin	9783.08	0
bin	9783.1	0
bin	9783.12	0
bin	9783.14	0
bin	9783.16	0
bin	9783.18	0
bin	9783.2	0
bin	9783.22	0
bin	9783.24	0
bin	9783.26	0
bin	9783.28	0
bin	9783.3	0
bin	9783.32	0
bin	9783.34	0
bin	9783.36	0
bin	9783.38	0
bin	9783.4	0
statistic QosShowcaseIPv6.ap.wlan[0].radio packetErrorRate:histogram
field count 22
field mean 0
field stddev 0
field min 0
field max 0
field sum 0
field sqrsum 0
attr recordingmode histogram
attr source packetErrorRate(packetSentToUpper)
attr title "Packet error rate"
bin	-inf	0
bin	-0.5	0
bin	-0.48	0
bin	-0.46	0
bin	-0.44	0
bin	-0.42	0
bin	-0.4	0
bin	-0.38	0
bin	-0.36	0
bin	-0.34	0
bin	-0.32	0
bin	-0.3	0
bin	-0.28	0
bin	-0.26	0
bin	-0.24	0
bin	-0.22	0
bin	-0.2	0
bin	-0.18	0
bin	-0.16	0
bin	-0.14	0
bin	-0.12	0
bin	-0.1	0
bin	-0.08	0
bin	-0.06	0
bin	-0.04	0
bin	-0.02	0
bin	0	22
bin	0.02	0
bin	0.04	0
bin	0.06	0
bin	0.08	0
bin	0.1	0
bin	0.12	0
bin	0.14	0
bin	0.16	0
bin	0.18	0
bin	0.2	0
bin	0.22	0
bin	0.24	0
bin	0.26	0
bin	0.28	0
bin	0.3	0
bin	0.32	0
bin	0.34	0
bin	0.36	0
bin	0.38	0
bin	0.4	0
bin	0.42	0
bin	0.44	0
bin	0.46	0
bin	0.48	0
bin	0.5	0
statistic QosShowcaseIPv6.ap.wlan[0].radio bitErrorRate:histogram
field count 0
field mean nan
field stddev nan
field min nan
field max nan
field sum 0
field sqrsum 0
attr recordingmode histogram
attr source bitErrorRate(packetSentToUpper)
attr title "Bit error rate"
bin	-inf	0
bin	0	0
bin	1	0
statistic QosShowcaseIPv6.ap.wlan[0].radio symbolErrorRate:histogram
field count 0
field mean nan
field stddev nan
field min nan
field max nan
field sum 0
field sqrsum 0
attr recordingmode histogram
attr source symbolErrorRate(packetSentToUpper)
attr title "Symbol error rate"
bin	-inf	0
bin	0	0
bin	1	0
scalar QosShowcaseIPv6.ap.wlan[0].radio transmissionState:count 184
attr enum UNDEFINED,IDLE,TRANSMITTING
attr interpolationmode sample-hold
attr recordingmode count
attr source transmissionStateChanged
attr title "Radio transmission state, count"
attr type enum
scalar QosShowcaseIPv6.ap.wlan[0].radio receptionState:count 137
attr enum UNDEFINED,IDLE,BUSY,RECEIVING
attr interpolationmode sample-hold
attr recordingmode count
attr source receptionStateChanged
attr title "Radio reception state, count"
attr type enum
scalar QosShowcaseIPv6.ap.wlan[0].radio radioMode:count 95
attr enum OFF,SLEEP,RECEIVER,TRANSMITTER,TRANSCEIVER,SWITCHING
attr interpolationmode sample-hold
attr recordingmode count
attr source radioModeChanged
attr title "Radio mode, count"
attr type enum
statistic QosShowcaseIPv6.ap.wlan[0].radio radioChannel:histogram
field count 1
field mean 0
field stddev nan
field min 0
field max 0
field sum 0
field sqrsum 0
attr interpolationmode sample-hold
attr recordingmode histogram
attr source radioChannelChanged
attr title "Radio channel"
bin	-inf	0
bin	-0.5	0
bin	-0.48	0
bin	-0.46	0
bin	-0.44	0
bin	-0.42	0
bin	-0.4	0
bin	-0.38	0
bin	-0.36	0
bin	-0.34	0
bin	-0.32	0
bin	-0.3	0
bin	-0.28	0
bin	-0.26	0
bin	-0.24	0
bin	-0.22	0
bin	-0.2	0
bin	-0.18	0
bin	-0.16	0
bin	-0.14	0
bin	-0.12	0
bin	-0.1	0
bin	-0.08	0
bin	-0.06	0
bin	-0.04	0
bin	-0.02	0
bin	0	1
bin	0.02	0
bin	0.04	0
bin	0.06	0
bin	0.08	0
bin	0.1	0
bin	0.12	0
bin	0.14	0
bin	0.16	0
bin	0.18	0
bin	0.2	0
bin	0.22	0
bin	0.24	0
bin	0.26	0
bin	0.28	0
bin	0.3	0
bin	0.32	0
bin	0.34	0
bin	0.36	0
bin	0.38	0
bin	0.4	0
bin	0.42	0
bin	0.44	0
bin	0.46	0
bin	0.48	0
bin	0.5	0
par QosShowcaseIPv6.ap.wlan[0] typename "\"inet.linklayer.ieee80211.Ieee80211Interface\""
par QosShowcaseIPv6.ap.wlan[0] displayStringTextFormat "\"%a (%i)\\n%m\""
par QosShowcaseIPv6.ap.wlan[0] recordPcap false
par QosShowcaseIPv6.ap.wlan[0] numPcapRecorders 0
par QosShowcaseIPv6.ap.wlan[0] interfaceTableModule "\"QosShowcaseIPv6.ap.interfaceTable\""
par QosShowcaseIPv6.ap.wlan[0] energySourceModule "\"\""
par QosShowcaseIPv6.ap.wlan[0] opMode "\"g(mixed)\""
attr enum a,b,g(erp),g(mixed),n(mixed-2.4Ghz),p,ac
par QosShowcaseIPv6.ap.wlan[0] address "\"0A-AA-00-00-00-01\""
attr mutable ""
par QosShowcaseIPv6.ap.wlan[0] protocol "\"ethernetmac\""
par QosShowcaseIPv6.ap.wlan[0] bitrate 5.4e+07bps
attr unit bps
scalar QosShowcaseIPv6.ap.wlan[0] packetDropInterfaceDown:count 0
attr interpolationmode none
attr recordingmode count
attr source packetDropReasonIsInterfaceDown(packetDropped)
attr title "packet drops: interface down, count"
scalar QosShowcaseIPv6.ap.wlan[0] packetDropInterfaceDown:sum(packetBytes) 0
attr interpolationmode none
attr recordingmode sum(packetBytes)
attr source packetDropReasonIsInterfaceDown(packetDropped)
attr title "packet drops: interface down, sum(packetBytes)"
scalar QosShowcaseIPv6.ap.wlan[0] packetDropNoCarrier:count 0
attr interpolationmode none
attr recordingmode count
attr source packetDropReasonIsNoCarrier(packetDropped)
attr title "packet drops: no carrier, count"
scalar QosShowcaseIPv6.ap.wlan[0] packetDropNoCarrier:sum(packetBytes) 0
attr interpolationmode none
attr recordingmode sum(packetBytes)
attr source packetDropReasonIsNoCarrier(packetDropped)
attr title "packet drops: no carrier, sum(packetBytes)"
par QosShowcaseIPv6.ap typename "\"inet.node.wireless.AccessPoint\""
par QosShowcaseIPv6.ap numWlanInterfaces 1
par QosShowcaseIPv6.ap hasStatus false
par QosShowcaseIPv6.ap fcsMode "\"declared\""
attr enum declared,computed
par QosShowcaseIPv6.server.radioIn[0].channel typename "\"ned.IdealChannel\""
par QosShowcaseIPv6.server.mobility typename "\"inet.mobility.static.StationaryMobility\""
par QosShowcaseIPv6.server.mobility subjectModule "\"^\""
par QosShowcaseIPv6.server.mobility coordinateSystemModule "\"\""
par QosShowcaseIPv6.server.mobility displayStringTextFormat "\"p: %p\\nv: %v\""
attr mutable ""
par QosShowcaseIPv6.server.mobility updateDisplayString true
par QosShowcaseIPv6.server.mobility constraintAreaMinX "-inf m"
attr unit m
par QosShowcaseIPv6.server.mobility constraintAreaMinY "-inf m"
attr unit m
par QosShowcaseIPv6.server.mobility constraintAreaMinZ "-inf m"
attr unit m
par QosShowcaseIPv6.server.mobility constraintAreaMaxX "inf m"
attr unit m
par QosShowcaseIPv6.server.mobility constraintAreaMaxY "inf m"
attr unit m
par QosShowcaseIPv6.server.mobility constraintAreaMaxZ "inf m"
attr unit m
par QosShowcaseIPv6.server.mobility initialX "nan m"
attr unit m
par QosShowcaseIPv6.server.mobility initialY "nan m"
attr unit m
par QosShowcaseIPv6.server.mobility initialZ 0m
attr unit m
par QosShowcaseIPv6.server.mobility initialLatitude "nan deg"
attr unit deg
par QosShowcaseIPv6.server.mobility initialLongitude "nan deg"
attr unit deg
par QosShowcaseIPv6.server.mobility initialAltitude 0m
attr unit m
par QosShowcaseIPv6.server.mobility initialHeading 0deg
attr unit deg
par QosShowcaseIPv6.server.mobility initialElevation 0deg
attr unit deg
par QosShowcaseIPv6.server.mobility initialBank 0deg
attr unit deg
par QosShowcaseIPv6.server.mobility initFromDisplayString true
par QosShowcaseIPv6.server.mobility updateFromDisplayString true
par QosShowcaseIPv6.server.interfaceTable typename "\"inet.networklayer.common.InterfaceTable\""
par QosShowcaseIPv6.server.interfaceTable displayAddresses false
par QosShowcaseIPv6.server.cb typename "\"inet.common.MessageDispatcher\""
par QosShowcaseIPv6.server.cb displayStringTextFormat "\"processed %p pk (%l)\""
par QosShowcaseIPv6.server.cb interfaceTableModule "\"QosShowcaseIPv6.server.interfaceTable\""
par QosShowcaseIPv6.server.cb forwardServiceRegistration true
par QosShowcaseIPv6.server.cb forwardProtocolRegistration true
par QosShowcaseIPv6.server.cb interfaceMapping {}
par QosShowcaseIPv6.server.cb serviceMapping {}
par QosShowcaseIPv6.server.cb protocolMapping {}
par QosShowcaseIPv6.server.bl typename "\"inet.common.MessageDispatcher\""
par QosShowcaseIPv6.server.bl displayStringTextFormat "\"processed %p pk (%l)\""
par QosShowcaseIPv6.server.bl interfaceTableModule "\"QosShowcaseIPv6.server.interfaceTable\""
par QosShowcaseIPv6.server.bl forwardServiceRegistration true
par QosShowcaseIPv6.server.bl forwardProtocolRegistration true
par QosShowcaseIPv6.server.bl interfaceMapping {}
par QosShowcaseIPv6.server.bl serviceMapping {}
par QosShowcaseIPv6.server.bl protocolMapping {}
par QosShowcaseIPv6.server.li typename "\"inet.common.MessageDispatcher\""
par QosShowcaseIPv6.server.li displayStringTextFormat "\"processed %p pk (%l)\""
par QosShowcaseIPv6.server.li interfaceTableModule "\"QosShowcaseIPv6.server.interfaceTable\""
par QosShowcaseIPv6.server.li forwardServiceRegistration true
par QosShowcaseIPv6.server.li forwardProtocolRegistration true
par QosShowcaseIPv6.server.li interfaceMapping {}
par QosShowcaseIPv6.server.li serviceMapping {}
par QosShowcaseIPv6.server.li protocolMapping {}
par QosShowcaseIPv6.server.lo[0].upperLayerIn.channel typename "\"ned.IdealChannel\""
par QosShowcaseIPv6.server.lo[0].lo.upperLayerOut.channel typename "\"ned.IdealChannel\""
par QosShowcaseIPv6.server.lo[0].lo typename "\"inet.linklayer.loopback.Loopback\""
par QosShowcaseIPv6.server.lo[0].lo interfaceTableModule "\"QosShowcaseIPv6.server.interfaceTable\""
par QosShowcaseIPv6.server.lo[0].lo mtu 4470B
attr unit B
scalar QosShowcaseIPv6.server.lo[0].lo rcvdPkFromHl:count 0
attr interpolationmode none
attr recordingmode count
attr source packetReceivedFromUpper
attr title "packets received from higher layer, count"
scalar QosShowcaseIPv6.server.lo[0].lo rcvdPkFromHl:sum(packetBytes) 0
attr interpolationmode none
attr recordingmode sum(packetBytes)
attr source packetReceivedFromUpper
attr title "packets received from higher layer, sum(packetBytes)"
scalar QosShowcaseIPv6.server.lo[0].lo passedUpPk:count 0
attr interpolationmode none
attr recordingmode count
attr source packetSentToUpper
attr title "packets passed to higher layer, count"
scalar QosShowcaseIPv6.server.lo[0].lo passedUpPk:sum(packetBytes) 0
attr interpolationmode none
attr recordingmode sum(packetBytes)
attr source packetSentToUpper
attr title "packets passed to higher layer, sum(packetBytes)"
par QosShowcaseIPv6.server.lo[0] typename "\"inet.linklayer.loopback.LoopbackInterface\""
par QosShowcaseIPv6.server.lo[0] displayStringTextFormat "\"%a (%i)\\n%m\""
par QosShowcaseIPv6.server.lo[0] recordPcap false
par QosShowcaseIPv6.server.lo[0] numPcapRecorders 0
par QosShowcaseIPv6.server.lo[0] interfaceTableModule "\"QosShowcaseIPv6.server.interfaceTable\""
scalar QosShowcaseIPv6.server.lo[0] packetDropInterfaceDown:count 0
attr interpolationmode none
attr recordingmode count
attr source packetDropReasonIsInterfaceDown(packetDropped)
attr title "packet drops: interface down, count"
scalar QosShowcaseIPv6.server.lo[0] packetDropInterfaceDown:sum(packetBytes) 0
attr interpolationmode none
attr recordingmode sum(packetBytes)
attr source packetDropReasonIsInterfaceDown(packetDropped)
attr title "packet drops: interface down, sum(packetBytes)"
scalar QosShowcaseIPv6.server.lo[0] packetDropNoCarrier:count 0
attr interpolationmode none
attr recordingmode count
attr source packetDropReasonIsNoCarrier(packetDropped)
attr title "packet drops: no carrier, count"
scalar QosShowcaseIPv6.server.lo[0] packetDropNoCarrier:sum(packetBytes) 0
attr interpolationmode none
attr recordingmode sum(packetBytes)
attr source packetDropReasonIsNoCarrier(packetDropped)
attr title "packet drops: no carrier, sum(packetBytes)"
par QosShowcaseIPv6.server.wlan[0].radioIn.channel typename "\"ned.IdealChannel\""
par QosShowcaseIPv6.server.wlan[0].llc.upperLayerOut.channel typename "\"ned.IdealChannel\""
par QosShowcaseIPv6.server.wlan[0].upperLayerIn.channel typename "\"ned.IdealChannel\""
par QosShowcaseIPv6.server.wlan[0].mib typename "\"inet.linklayer.ieee80211.mib.Ieee80211Mib\""
par QosShowcaseIPv6.server.wlan[0].llc typename "\"inet.linklayer.ieee80211.llc.Ieee80211LlcLpd\""
par QosShowcaseIPv6.server.wlan[0].llc registerProtocol false
par QosShowcaseIPv6.server.wlan[0].agent typename "\"inet.linklayer.ieee80211.mgmt.Ieee80211AgentSta\""
par QosShowcaseIPv6.server.wlan[0].agent interfaceTableModule "\"QosShowcaseIPv6.server.interfaceTable\""
par QosShowcaseIPv6.server.wlan[0].agent mibModule "\"QosShowcaseIPv6.server.wlan[0].mib\""
par QosShowcaseIPv6.server.wlan[0].agent activeScan true
par QosShowcaseIPv6.server.wlan[0].agent channelsToScan "\"\""
par QosShowcaseIPv6.server.wlan[0].agent probeDelay 0.1s
attr unit s
par QosShowcaseIPv6.server.wlan[0].agent minChannelTime 0.15s
attr unit s
par QosShowcaseIPv6.server.wlan[0].agent maxChannelTime 0.3s
attr unit s
par QosShowcaseIPv6.server.wlan[0].agent authenticationTimeout 5s
attr unit s
par QosShowcaseIPv6.server.wlan[0].agent associationTimeout 5s
attr unit s
par QosShowcaseIPv6.server.wlan[0].agent startingTime -1s
attr unit s
par QosShowcaseIPv6.server.wlan[0].agent defaultSsid "\"SSID\""
scalar QosShowcaseIPv6.server.wlan[0].agent dropConfirm:count 0
attr recordingmode count
attr title "dropped confirms, count"
scalar QosShowcaseIPv6.server.wlan[0].agent acceptConfirm:count 3
attr recordingmode count
attr title "accepted confirms, count"
scalar QosShowcaseIPv6.server.wlan[0].agent sentRequest:count 3
attr recordingmode count
attr title "sent requests, count"
par QosShowcaseIPv6.server.wlan[0].mgmt typename "\"inet.linklayer.ieee80211.mgmt.Ieee80211MgmtSta\""
par QosShowcaseIPv6.server.wlan[0].mgmt interfaceTableModule "\"QosShowcaseIPv6.server.interfaceTable\""
par QosShowcaseIPv6.server.wlan[0].mgmt numChannels 1
par QosShowcaseIPv6.server.wlan[0].mgmt mibModule "\"QosShowcaseIPv6.server.wlan[0].mib\""
par QosShowcaseIPv6.server.wlan[0].mgmt macModule "\"QosShowcaseIPv6.server.wlan[0].mac\""
par QosShowcaseIPv6.server.wlan[0].mac.dcf.channelAccess.pendingQueue typename "\"inet.linklayer.ieee80211.mac.queue.PendingQueue\""
par QosShowcaseIPv6.server.wlan[0].mac.dcf.channelAccess.pendingQueue displayStringTextFormat "\"contains %p pk (%l) pushed %u\\npulled %o removed %r dropped %d\""
par QosShowcaseIPv6.server.wlan[0].mac.dcf.channelAccess.pendingQueue packetCapacity 100
par QosShowcaseIPv6.server.wlan[0].mac.dcf.channelAccess.pendingQueue dataCapacity -1b
attr unit b
par QosShowcaseIPv6.server.wlan[0].mac.dcf.channelAccess.pendingQueue dropperClass "\"inet::queueing::PacketAtCollectionEndDropper\""
par QosShowcaseIPv6.server.wlan[0].mac.dcf.channelAccess.pendingQueue comparatorClass "\"inet::ieee80211::MgmtOverDataComparator\""
par QosShowcaseIPv6.server.wlan[0].mac.dcf.channelAccess.pendingQueue bufferModule "\"\""
scalar QosShowcaseIPv6.server.wlan[0].mac.dcf.channelAccess.pendingQueue queueLength:last 0
attr autoWarmupFilter false
attr interpolationmode sample-hold
attr recordingmode last
attr source "warmup(atomic(constant0(packetPushEnded) + count(packetPushStarted) - count(packetPulled) - count(packetRemoved) - count(packetDropped)))"
attr title "queue length, last"
attr unit pk
scalar QosShowcaseIPv6.server.wlan[0].mac.dcf.channelAccess.pendingQueue queueLength:max 1
attr autoWarmupFilter false
attr interpolationmode sample-hold
attr recordingmode max
attr source "warmup(atomic(constant0(packetPushEnded) + count(packetPushStarted) - count(packetPulled) - count(packetRemoved) - count(packetDropped)))"
attr title "queue length, max"
attr unit pk
scalar QosShowcaseIPv6.server.wlan[0].mac.dcf.channelAccess.pendingQueue queueLength:timeavg 0.0004485685024618
attr autoWarmupFilter false
attr interpolationmode sample-hold
attr recordingmode timeavg
attr source "warmup(atomic(constant0(packetPushEnded) + count(packetPushStarted) - count(packetPulled) - count(packetRemoved) - count(packetDropped)))"
attr title "queue length, timeavg"
attr unit pk
scalar QosShowcaseIPv6.server.wlan[0].mac.dcf.channelAccess.pendingQueue queueBitLength:last 0
attr autoWarmupFilter false
attr interpolationmode sample-hold
attr recordingmode last
attr source "warmup(atomic(constant0(packetPushEnded) + sum(packetLength(packetPushStarted)) - sum(packetLength(packetPulled)) - sum(packetLength(packetRemoved)) - sum(packetLength(packetDropped))))"
attr title "queue bit length, last"
attr unit b
scalar QosShowcaseIPv6.server.wlan[0].mac.dcf.channelAccess.pendingQueue queueBitLength:max 864
attr autoWarmupFilter false
attr interpolationmode sample-hold
attr recordingmode max
attr source "warmup(atomic(constant0(packetPushEnded) + sum(packetLength(packetPushStarted)) - sum(packetLength(packetPulled)) - sum(packetLength(packetRemoved)) - sum(packetLength(packetDropped))))"
attr title "queue bit length, max"
attr unit b
scalar QosShowcaseIPv6.server.wlan[0].mac.dcf.channelAccess.pendingQueue queueBitLength:timeavg 0.24400528071552
attr autoWarmupFilter false
attr interpolationmode sample-hold
attr recordingmode timeavg
attr source "warmup(atomic(constant0(packetPushEnded) + sum(packetLength(packetPushStarted)) - sum(packetLength(packetPulled)) - sum(packetLength(packetRemoved)) - sum(packetLength(packetDropped))))"
attr title "queue bit length, timeavg"
attr unit b
statistic QosShowcaseIPv6.server.wlan[0].mac.dcf.channelAccess.pendingQueue queueingTime:histogram
field count 6
field mean 0.00014966666666667
field stddev 0.00019888254490193
field min 0
field max 0.00041
field sum 0.000898
field sqrsum 3.32172e-07
attr interpolationmode none
attr recordingmode histogram
attr source queueingTime(packetPulled)
attr title "queueing times"
attr unit s
bin	-inf	0
bin	0	3
bin	1e-05	0
bin	2e-05	0
bin	3e-05	0
bin	4e-05	0
bin	5e-05	0
bin	6e-05	0
bin	7e-05	0
bin	8e-05	0
bin	9e-05	1
bin	0.0001	0
bin	0.00011	0
bin	0.00012	0
bin	0.00013	0
bin	0.00014	0
bin	0.00015	0
bin	0.00016	0
bin	0.00017	0
bin	0.00018	0
bin	0.00019	0
bin	0.0002	0
bin	0.00021	0
bin	0.00022	0
bin	0.00023	0
bin	0.00024	0
bin	0.00025	0
bin	0.00026	0
bin	0.00027	0
bin	0.00028	0
bin	0.00029	0
bin	0.0003	0
bin	0.00031	0
bin	0.00032	0
bin	0.00033	0
bin	0.00034	0
bin	0.00035	0
bin	0.00036	0
bin	0.00037	0
bin	0.00038	0
bin	0.00039	1
bin	0.0004	1
bin	0.00041	0
bin	0.00042	0
bin	0.00043	0
bin	0.00044	0
bin	0.00045	0
bin	0.00046	0
bin	0.00047	0
bin	0.00048	0
bin	0.00049	0
bin	0.0005	0
bin	0.00051	0
bin	0.00052	0
scalar QosShowcaseIPv6.server.wlan[0].mac.dcf.channelAccess.pendingQueue outgoingPackets:count 6
attr recordingmode count
attr source packetPulled
attr title "outgoing packets, count"
attr unit pk
scalar QosShowcaseIPv6.server.wlan[0].mac.dcf.channelAccess.pendingQueue outgoingPacketLengths:sum 2816
attr interpolationmode none
attr recordingmode sum
attr source packetLength(packetPulled)
attr title "outgoing packet lengths, sum"
attr unit b
statistic QosShowcaseIPv6.server.wlan[0].mac.dcf.channelAccess.pendingQueue outgoingPacketLengths:histogram
field count 6
field mean 469.33333333333
field stddev 282.19331435501
field min 272
field max 864
field sum 2816
field sqrsum 1719808
attr interpolationmode none
attr recordingmode histogram
attr source packetLength(packetPulled)
attr title "outgoing packet lengths"
attr unit b
bin	-inf	0
bin	120	0
bin	130	0
bin	140	0
bin	150	0
bin	160	0
bin	170	0
bin	180	0
bin	190	0
bin	200	0
bin	210	0
bin	220	0
bin	230	0
bin	240	0
bin	250	0
bin	260	0
bin	270	2
bin	280	1
bin	290	0
bin	300	0
bin	310	0
bin	320	1
bin	330	0
bin	340	0
bin	350	0
bin	360	0
bin	370	0
bin	380	0
bin	390	0
bin	400	0
bin	410	0
bin	420	0
bin	430	0
bin	440	0
bin	450	0
bin	460	0
bin	470	0
bin	480	0
bin	490	0
bin	500	0
bin	510	0
bin	520	0
bin	530	0
bin	540	0
bin	550	0
bin	560	0
bin	570	0
bin	580	0
bin	590	0
bin	600	0
bin	610	0
bin	620	0
bin	630	0
bin	640	0
bin	650	0
bin	660	0
bin	670	0
bin	680	0
bin	690	0
bin	700	0
bin	710	0
bin	720	0
bin	730	0
bin	740	0
bin	750	0
bin	760	0
bin	770	0
bin	780	0
bin	790	0
bin	800	1
bin	810	0
bin	820	0
bin	830	0
bin	840	0
bin	850	0
bin	860	1
bin	870	0
bin	880	0
bin	890	0
bin	900	0
bin	910	0
bin	920	0
bin	930	0
bin	940	0
bin	950	0
bin	960	0
bin	970	0
bin	980	0
bin	990	0
bin	1000	0
bin	1010	0
bin	1020	0
statistic QosShowcaseIPv6.server.wlan[0].mac.dcf.channelAccess.pendingQueue flowQueueingTime:histogram
field count 0
field mean nan
field stddev nan
field min nan
field max nan
field sum 0
field sqrsum 0
attr interpolationmode none
attr recordingmode histogram
attr source queueingTime(demuxFlow(packetPulled))
attr title "flow queueing times"
attr unit s
bin	-inf	0
bin	0	0
bin	1	0
scalar QosShowcaseIPv6.server.wlan[0].mac.dcf.channelAccess.pendingQueue incomingPackets:count 6
attr recordingmode count
attr source packetPushStarted
attr title "incoming packets, count"
attr unit pk
scalar QosShowcaseIPv6.server.wlan[0].mac.dcf.channelAccess.pendingQueue incomingPacketLengths:sum 2816
attr interpolationmode none
attr recordingmode sum
attr source packetLength(packetPushStarted)
attr title "incoming packet lengths, sum"
attr unit b
statistic QosShowcaseIPv6.server.wlan[0].mac.dcf.channelAccess.pendingQueue incomingPacketLengths:histogram
field count 6
field mean 469.33333333333
field stddev 282.19331435501
field min 272
field max 864
field sum 2816
field sqrsum 1719808
attr interpolationmode none
attr recordingmode histogram
attr source packetLength(packetPushStarted)
attr title "incoming packet lengths"
attr unit b
bin	-inf	0
bin	120	0
bin	130	0
bin	140	0
bin	150	0
bin	160	0
bin	170	0
bin	180	0
bin	190	0
bin	200	0
bin	210	0
bin	220	0
bin	230	0
bin	240	0
bin	250	0
bin	260	0
bin	270	2
bin	280	1
bin	290	0
bin	300	0
bin	310	0
bin	320	1
bin	330	0
bin	340	0
bin	350	0
bin	360	0
bin	370	0
bin	380	0
bin	390	0
bin	400	0
bin	410	0
bin	420	0
bin	430	0
bin	440	0
bin	450	0
bin	460	0
bin	470	0
bin	480	0
bin	490	0
bin	500	0
bin	510	0
bin	520	0
bin	530	0
bin	540	0
bin	550	0
bin	560	0
bin	570	0
bin	580	0
bin	590	0
bin	600	0
bin	610	0
bin	620	0
bin	630	0
bin	640	0
bin	650	0
bin	660	0
bin	670	0
bin	680	0
bin	690	0
bin	700	0
bin	710	0
bin	720	0
bin	730	0
bin	740	0
bin	750	0
bin	760	0
bin	770	0
bin	780	0
bin	790	0
bin	800	1
bin	810	0
bin	820	0
bin	830	0
bin	840	0
bin	850	0
bin	860	1
bin	870	0
bin	880	0
bin	890	0
bin	900	0
bin	910	0
bin	920	0
bin	930	0
bin	940	0
bin	950	0
bin	960	0
bin	970	0
bin	980	0
bin	990	0
bin	1000	0
bin	1010	0
bin	1020	0
scalar QosShowcaseIPv6.server.wlan[0].mac.dcf.channelAccess.pendingQueue droppedPacketsQueueOverflow:count 0
attr interpolationmode none
attr recordingmode count
attr source packetDropReasonIsQueueOverflow(packetDropped)
attr title "dropped packets: queue overflow, count"
attr unit pk
scalar QosShowcaseIPv6.server.wlan[0].mac.dcf.channelAccess.pendingQueue droppedPacketLengthsQueueOverflow:sum 0
attr interpolationmode none
attr recordingmode sum
attr source packetLength(packetDropReasonIsQueueOverflow(packetDropped))
attr title "dropped packet lengths: queue overflow, sum"
attr unit b
par QosShowcaseIPv6.server.wlan[0].mac.dcf.channelAccess.inProgressFrames typename "\"inet.linklayer.ieee80211.mac.queue.InProgressFrames\""
par QosShowcaseIPv6.server.wlan[0].mac.dcf.channelAccess.inProgressFrames pendingQueueModule "\"^.pendingQueue\""
par QosShowcaseIPv6.server.wlan[0].mac.dcf.channelAccess.inProgressFrames originatorMacDataServiceModule "\"^.^.originatorMacDataService\""
par QosShowcaseIPv6.server.wlan[0].mac.dcf.channelAccess.inProgressFrames ackHandlerModule "\"^.^.ackHandler\""
statistic QosShowcaseIPv6.server.wlan[0].mac.dcf.channelAccess.inProgressFrames queueingTime:histogram
field count 6
field mean 8.0119551666667e-05
field stddev 1.8743106802882e-05
field min 4.2e-05
field max 9.0943462e-05
field sum 0.00048071731
field sqrsum 4.0271375618727e-08
attr interpolationmode none
attr recordingmode histogram
attr source queueingTime(packetDequeued)
attr title "queueing times"
bin	-inf	0
bin	2.9e-05	0
bin	3e-05	0
bin	3.1e-05	0
bin	3.2e-05	0
bin	3.3e-05	0
bin	3.4e-05	0
bin	3.5e-05	0
bin	3.6e-05	0
bin	3.7e-05	0
bin	3.8e-05	0
bin	3.9e-05	0
bin	4e-05	0
bin	4.1e-05	1
bin	4.2e-05	0
bin	4.3e-05	0
bin	4.4e-05	0
bin	4.5e-05	0
bin	4.6e-05	0
bin	4.7e-05	0
bin	4.8e-05	0
bin	4.9e-05	0
bin	5e-05	0
bin	5.1e-05	0
bin	5.2e-05	0
bin	5.3e-05	0
bin	5.4e-05	0
bin	5.5e-05	0
bin	5.6e-05	0
bin	5.7e-05	0
bin	5.8e-05	0
bin	5.9e-05	0
bin	6e-05	0
bin	6.1e-05	0
bin	6.2e-05	0
bin	6.3e-05	0
bin	6.4e-05	0
bin	6.5e-05	0
bin	6.6e-05	0
bin	6.7e-05	0
bin	6.8e-05	0
bin	6.9e-05	0
bin	7e-05	0
bin	7.1e-05	0
bin	7.2e-05	0
bin	7.3e-05	0
bin	7.4e-05	0
bin	7.5e-05	0
bin	7.6e-05	0
bin	7.7e-05	0
bin	7.8e-05	0
bin	7.9e-05	0
bin	8e-05	0
bin	8.1e-05	0
bin	8.2e-05	0
bin	8.3e-05	0
bin	8.4e-05	0
bin	8.5e-05	0
bin	8.6e-05	4
bin	8.7e-05	0
bin	8.8e-05	0
bin	8.9e-05	0
bin	9e-05	1
bin	9.1e-05	0
bin	9.2e-05	0
bin	9.3e-05	0
bin	9.4e-05	0
bin	9.5e-05	0
bin	9.6e-05	0
bin	9.7e-05	0
bin	9.8e-05	0
bin	9.9e-05	0
bin	0.0001	0
bin	0.000101	0
bin	0.000102	0
bin	0.000103	0
bin	0.000104	0
scalar QosShowcaseIPv6.server.wlan[0].mac.dcf.channelAccess.inProgressFrames queueLength:max 1
attr autoWarmupFilter false
attr interpolationmode sample-hold
attr recordingmode max
attr source "warmup(count(packetEnqueued) - count(packetDequeued))"
attr title "queue length, max"
scalar QosShowcaseIPv6.server.wlan[0].mac.dcf.channelAccess.inProgressFrames queueLength:timeavg 0.00024012766576188
attr autoWarmupFilter false
attr interpolationmode sample-hold
attr recordingmode timeavg
attr source "warmup(count(packetEnqueued) - count(packetDequeued))"
attr title "queue length, timeavg"
par QosShowcaseIPv6.server.wlan[0].mac.dcf.channelAccess.contention typename "\"inet.linklayer.ieee80211.mac.contention.Contention\""
par QosShowcaseIPv6.server.wlan[0].mac.dcf.channelAccess.contention initialChannelBusy true
par QosShowcaseIPv6.server.wlan[0].mac.dcf.channelAccess.contention backoffOptimization true
scalar QosShowcaseIPv6.server.wlan[0].mac.dcf.channelAccess.contention channelAccessGranted:count 6
attr recordingmode count
attr title "channel access granted, count"
scalar QosShowcaseIPv6.server.wlan[0].mac.dcf.channelAccess.contention stateChanged:count 278
attr enum IDLE,DEFER,IFS_AND_BACKOFF
attr interpolationmode none
attr recordingmode count
attr title "contention state changed, count"
attr type enum
par QosShowcaseIPv6.server.wlan[0].mac.dcf.channelAccess typename "\"inet.linklayer.ieee80211.mac.channelaccess.Dcaf\""
par QosShowcaseIPv6.server.wlan[0].mac.dcf.channelAccess difsn -1
par QosShowcaseIPv6.server.wlan[0].mac.dcf.channelAccess cwMin -1
par QosShowcaseIPv6.server.wlan[0].mac.dcf.channelAccess cwMax -1
par QosShowcaseIPv6.server.wlan[0].mac.dcf.channelAccess rxModule "\"^.^.rx\""
scalar QosShowcaseIPv6.server.wlan[0].mac.dcf.channelAccess channelOwnershipChanged:count 12
attr interpolationmode sample-hold
attr recordingmode count
attr title "channel ownership, count"
par QosShowcaseIPv6.server.wlan[0].mac.dcf.originatorMacDataService.fragmentationPolicy typename "\"inet.linklayer.ieee80211.mac.fragmentation.BasicFragmentationPolicy\""
par QosShowcaseIPv6.server.wlan[0].mac.dcf.originatorMacDataService.fragmentationPolicy fragmentationThreshold 1500B
attr unit B
par QosShowcaseIPv6.server.wlan[0].mac.dcf.originatorMacDataService typename "\"inet.linklayer.ieee80211.mac.originator.OriginatorMacDataService\""
scalar QosShowcaseIPv6.server.wlan[0].mac.dcf.originatorMacDataService packetAggregated:count 0
attr recordingmode count
attr title "packets aggregated, count"
scalar QosShowcaseIPv6.server.wlan[0].mac.dcf.originatorMacDataService packetFragmented:count 0
attr recordingmode count
attr title "packets fragmented, count"
par QosShowcaseIPv6.server.wlan[0].mac.dcf.recipientMacDataService typename "\"inet.linklayer.ieee80211.mac.recipient.RecipientMacDataService\""
scalar QosShowcaseIPv6.server.wlan[0].mac.dcf.recipientMacDataService packetDropDuplicateDetected:count 0
attr interpolationmode none
attr recordingmode count
attr source packetDropReasonIsDuplicateDetected(packetDropped)
attr title "packet drops: duplicate detected, count"
scalar QosShowcaseIPv6.server.wlan[0].mac.dcf.recipientMacDataService packetDropDuplicateDetected:sum(packetBytes) 0
attr interpolationmode none
attr recordingmode sum(packetBytes)
attr source packetDropReasonIsDuplicateDetected(packetDropped)
attr title "packet drops: duplicate detected, sum(packetBytes)"
scalar QosShowcaseIPv6.server.wlan[0].mac.dcf.recipientMacDataService packetDeaggregated:count 0
attr recordingmode count
attr title "packets deaggregated, count"
scalar QosShowcaseIPv6.server.wlan[0].mac.dcf.recipientMacDataService packetDefragmented:count 29
attr recordingmode count
attr title "packets defragmented, count"
par QosShowcaseIPv6.server.wlan[0].mac.dcf.rateSelection typename "\"inet.linklayer.ieee80211.mac.rateselection.RateSelection\""
par QosShowcaseIPv6.server.wlan[0].mac.dcf.rateSelection rateControlModule "\"^.rateControl\""
par QosShowcaseIPv6.server.wlan[0].mac.dcf.rateSelection multicastFrameBitrate -1bps
attr unit bps
par QosShowcaseIPv6.server.wlan[0].mac.dcf.rateSelection responseAckFrameBitrate -1bps
attr unit bps
par QosShowcaseIPv6.server.wlan[0].mac.dcf.rateSelection responseCtsFrameBitrate -1bps
attr unit bps
par QosShowcaseIPv6.server.wlan[0].mac.dcf.rateSelection dataFrameBitrate 5.4e+07bps
attr unit bps
par QosShowcaseIPv6.server.wlan[0].mac.dcf.rateSelection dataFrameBandwidth "nan Hz"
attr unit Hz
par QosShowcaseIPv6.server.wlan[0].mac.dcf.rateSelection dataFrameNumSpatialStreams -1
par QosShowcaseIPv6.server.wlan[0].mac.dcf.rateSelection mgmtFrameBitrate -1bps
attr unit bps
par QosShowcaseIPv6.server.wlan[0].mac.dcf.rateSelection controlFrameBitrate -1bps
attr unit bps
par QosShowcaseIPv6.server.wlan[0].mac.dcf.recoveryProcedure typename "\"inet.linklayer.ieee80211.mac.originator.NonQosRecoveryProcedure\""
par QosShowcaseIPv6.server.wlan[0].mac.dcf.recoveryProcedure cwCalculatorModule "\"^.channelAccess\""
par QosShowcaseIPv6.server.wlan[0].mac.dcf.recoveryProcedure rtsPolicyModule "\"^.rtsPolicy\""
par QosShowcaseIPv6.server.wlan[0].mac.dcf.recoveryProcedure shortRetryLimit 7
par QosShowcaseIPv6.server.wlan[0].mac.dcf.recoveryProcedure longRetryLimit 4
scalar QosShowcaseIPv6.server.wlan[0].mac.dcf.recoveryProcedure retryLimitReached:count 0
attr recordingmode count
attr title "retry limit reached, count"
par QosShowcaseIPv6.server.wlan[0].mac.dcf.originatorProtectionMechanism typename "\"inet.linklayer.ieee80211.mac.protectionmechanism.OriginatorProtectionMechanism\""
par QosShowcaseIPv6.server.wlan[0].mac.dcf.originatorProtectionMechanism rateSelectionModule "\"^.rateSelection\""
par QosShowcaseIPv6.server.wlan[0].mac.dcf.ackHandler typename "\"inet.linklayer.ieee80211.mac.originator.AckHandler\""
par QosShowcaseIPv6.server.wlan[0].mac.dcf.originatorAckPolicy typename "\"inet.linklayer.ieee80211.mac.originator.OriginatorAckPolicy\""
par QosShowcaseIPv6.server.wlan[0].mac.dcf.originatorAckPolicy rateSelectionModule "\"^.rateSelection\""
par QosShowcaseIPv6.server.wlan[0].mac.dcf.originatorAckPolicy ackTimeout -1s
attr unit s
par QosShowcaseIPv6.server.wlan[0].mac.dcf.recipientAckPolicy typename "\"inet.linklayer.ieee80211.mac.recipient.RecipientAckPolicy\""
par QosShowcaseIPv6.server.wlan[0].mac.dcf.recipientAckPolicy rateSelectionModule "\"^.rateSelection\""
par QosShowcaseIPv6.server.wlan[0].mac.dcf.rtsPolicy typename "\"inet.linklayer.ieee80211.mac.originator.RtsPolicy\""
par QosShowcaseIPv6.server.wlan[0].mac.dcf.rtsPolicy rateSelectionModule "\"^.rateSelection\""
par QosShowcaseIPv6.server.wlan[0].mac.dcf.rtsPolicy ctsTimeout -1s
attr unit s
par QosShowcaseIPv6.server.wlan[0].mac.dcf.rtsPolicy rtsThreshold 2346B
attr unit B
par QosShowcaseIPv6.server.wlan[0].mac.dcf.ctsPolicy typename "\"inet.linklayer.ieee80211.mac.recipient.CtsPolicy\""
par QosShowcaseIPv6.server.wlan[0].mac.dcf.ctsPolicy rxModule "\"^.^.rx\""
par QosShowcaseIPv6.server.wlan[0].mac.dcf.ctsPolicy rateSelectionModule "\"^.rateSelection\""
par QosShowcaseIPv6.server.wlan[0].mac.dcf typename "\"inet.linklayer.ieee80211.mac.coordinationfunction.Dcf\""
par QosShowcaseIPv6.server.wlan[0].mac.dcf rxModule "\"^.rx\""
par QosShowcaseIPv6.server.wlan[0].mac.dcf txModule "\"^.tx\""
scalar QosShowcaseIPv6.server.wlan[0].mac.dcf packetReceivedFromPeer:count 34
attr interpolationmode none
attr recordingmode count
attr title "packets received, count"
scalar QosShowcaseIPv6.server.wlan[0].mac.dcf packetReceivedFromPeer:sum(packetBytes) 1806
attr interpolationmode none
attr recordingmode sum(packetBytes)
attr title "packets received, sum(packetBytes)"
scalar QosShowcaseIPv6.server.wlan[0].mac.dcf packetReceivedFromPeerUnicast:count 9
attr interpolationmode none
attr recordingmode count
attr source ieee80211Unicast(packetReceivedFromPeer)
attr title "packets received: unicast, count"
scalar QosShowcaseIPv6.server.wlan[0].mac.dcf packetReceivedFromPeerUnicast:sum(packetBytes) 238
attr interpolationmode none
attr recordingmode sum(packetBytes)
attr source ieee80211Unicast(packetReceivedFromPeer)
attr title "packets received: unicast, sum(packetBytes)"
scalar QosShowcaseIPv6.server.wlan[0].mac.dcf packetReceivedFromPeerMulticast:count 25
attr interpolationmode none
attr recordingmode count
attr source ieee80211Multicast(packetReceivedFromPeer)
attr title "packets received: multicast, count"
scalar QosShowcaseIPv6.server.wlan[0].mac.dcf packetReceivedFromPeerMulticast:sum(packetBytes) 1568
attr interpolationmode none
attr recordingmode sum(packetBytes)
attr source ieee80211Multicast(packetReceivedFromPeer)
attr title "packets received: multicast, sum(packetBytes)"
scalar QosShowcaseIPv6.server.wlan[0].mac.dcf packetReceivedFromPeerBroadcast:count 25
attr interpolationmode none
attr recordingmode count
attr source ieee80211Broadcast(packetReceivedFromPeer)
attr title "packets received: broadcast, count"
scalar QosShowcaseIPv6.server.wlan[0].mac.dcf packetReceivedFromPeerBroadcast:sum(packetBytes) 1568
attr interpolationmode none
attr recordingmode sum(packetBytes)
attr source ieee80211Broadcast(packetReceivedFromPeer)
attr title "packets received: broadcast, sum(packetBytes)"
scalar QosShowcaseIPv6.server.wlan[0].mac.dcf packetReceivedFromPeerWithRetry:count 0
attr interpolationmode none
attr recordingmode count
attr source ieee80211Retry(packetReceivedFromPeer)
attr title "packets received: with retry, count"
scalar QosShowcaseIPv6.server.wlan[0].mac.dcf packetReceivedFromPeerWithRetry:sum(packetBytes) 0
attr interpolationmode none
attr recordingmode sum(packetBytes)
attr source ieee80211Retry(packetReceivedFromPeer)
attr title "packets received: with retry, sum(packetBytes)"
[...]
attr unit s
par QosShowcaseIPv6.visualizer.physicalLinkVisualizer fadeOutAnimationSpeed 0
par QosShowcaseIPv6.visualizer.physicalLinkVisualizer holdAnimationTime 0s
attr unit s
par QosShowcaseIPv6.visualizer.physicalLinkVisualizer zIndex 1
par QosShowcaseIPv6.visualizer.interfaceTableVisualizer typename "\"inet.visualizer.canvas.linklayer.InterfaceTableCanvasVisualizer\""
par QosShowcaseIPv6.visualizer.interfaceTableVisualizer visualizationTargetModule "\"^.^\""
par QosShowcaseIPv6.visualizer.interfaceTableVisualizer visualizationSubjectModule "\"^.^\""
par QosShowcaseIPv6.visualizer.interfaceTableVisualizer tags "\"\""
par QosShowcaseIPv6.visualizer.interfaceTableVisualizer networkNodeVisualizerModule "\"^.networkNodeVisualizer\""
par QosShowcaseIPv6.visualizer.interfaceTableVisualizer displayInterfaceTables false
par QosShowcaseIPv6.visualizer.interfaceTableVisualizer displayWiredInterfacesAtConnections true
par QosShowcaseIPv6.visualizer.interfaceTableVisualizer displayBackground false
par QosShowcaseIPv6.visualizer.interfaceTableVisualizer nodeFilter "\"*\""
attr mutable ""
par QosShowcaseIPv6.visualizer.interfaceTableVisualizer interfaceFilter "\"not(lo*)\""
attr mutable ""
par QosShowcaseIPv6.visualizer.interfaceTableVisualizer format "\"%N %\\\\%a%/%l\""
attr mutable ""
par QosShowcaseIPv6.visualizer.interfaceTableVisualizer placementHint "\"top\""
par QosShowcaseIPv6.visualizer.interfaceTableVisualizer placementPriority 0
par QosShowcaseIPv6.visualizer.interfaceTableVisualizer font "\"<default>\""
par QosShowcaseIPv6.visualizer.interfaceTableVisualizer textColor "\"#005030\""
par QosShowcaseIPv6.visualizer.interfaceTableVisualizer backgroundColor "\"white\""
par QosShowcaseIPv6.visualizer.interfaceTableVisualizer opacity 1
par QosShowcaseIPv6.visualizer.interfaceTableVisualizer zIndex 10
par QosShowcaseIPv6.visualizer.interfaceTableVisualizer anchor "\"l\""
attr enum l,r,t
par QosShowcaseIPv6.visualizer.dataLinkVisualizer typename "\"inet.visualizer.canvas.linklayer.DataLinkCanvasVisualizer\""
par QosShowcaseIPv6.visualizer.dataLinkVisualizer visualizationTargetModule "\"^.^\""
par QosShowcaseIPv6.visualizer.dataLinkVisualizer visualizationSubjectModule "\"^.^\""
par QosShowcaseIPv6.visualizer.dataLinkVisualizer tags "\"\""
par QosShowcaseIPv6.visualizer.dataLinkVisualizer displayLinks false
par QosShowcaseIPv6.visualizer.dataLinkVisualizer activityLevel "\"service\""
attr enum service,peer,protocol
par QosShowcaseIPv6.visualizer.dataLinkVisualizer nodeFilter "\"*\""
attr mutable ""
par QosShowcaseIPv6.visualizer.dataLinkVisualizer interfaceFilter "\"*\""
attr mutable ""
par QosShowcaseIPv6.visualizer.dataLinkVisualizer packetFilter "(omnetpp::cValueHolder)holder: \"*\""
attr mutable ""
par QosShowcaseIPv6.visualizer.dataLinkVisualizer lineColor "\"darkcyan\""
par QosShowcaseIPv6.visualizer.dataLinkVisualizer lineStyle "\"solid\""
par QosShowcaseIPv6.visualizer.dataLinkVisualizer lineWidth 3
par QosShowcaseIPv6.visualizer.dataLinkVisualizer lineShift 16
par QosShowcaseIPv6.visualizer.dataLinkVisualizer lineShiftMode "\"normal\""
par QosShowcaseIPv6.visualizer.dataLinkVisualizer lineContactSpacing 3
par QosShowcaseIPv6.visualizer.dataLinkVisualizer lineContactMode "\"rectangular\""
attr enum circular,rectangular
par QosShowcaseIPv6.visualizer.dataLinkVisualizer labelFormat "\"%n\""
par QosShowcaseIPv6.visualizer.dataLinkVisualizer labelFont "\"<default>, 8px\""
par QosShowcaseIPv6.visualizer.dataLinkVisualizer labelColor "\"darkcyan\""
par QosShowcaseIPv6.visualizer.dataLinkVisualizer fadeOutMode "\"realTime\""
attr enum realTime,animationTime,simulationTime
par QosShowcaseIPv6.visualizer.dataLinkVisualizer fadeOutTime 1s
attr unit s
par QosShowcaseIPv6.visualizer.dataLinkVisualizer fadeOutAnimationSpeed 0
par QosShowcaseIPv6.visualizer.dataLinkVisualizer holdAnimationTime 0s
attr unit s
par QosShowcaseIPv6.visualizer.dataLinkVisualizer zIndex 2
par QosShowcaseIPv6.visualizer.linkBreakVisualizer typename "\"inet.visualizer.canvas.linklayer.LinkBreakCanvasVisualizer\""
par QosShowcaseIPv6.visualizer.linkBreakVisualizer visualizationTargetModule "\"^.^\""
par QosShowcaseIPv6.visualizer.linkBreakVisualizer visualizationSubjectModule "\"^.^\""
par QosShowcaseIPv6.visualizer.linkBreakVisualizer tags "\"\""
par QosShowcaseIPv6.visualizer.linkBreakVisualizer displayLinkBreaks false
par QosShowcaseIPv6.visualizer.linkBreakVisualizer nodeFilter "\"*\""
attr mutable ""
par QosShowcaseIPv6.visualizer.linkBreakVisualizer interfaceFilter "\"*\""
attr mutable ""
par QosShowcaseIPv6.visualizer.linkBreakVisualizer packetFilter "(omnetpp::cValueHolder)holder: \"*\""
attr mutable ""
par QosShowcaseIPv6.visualizer.linkBreakVisualizer icon "\"status/stop\""
par QosShowcaseIPv6.visualizer.linkBreakVisualizer iconTintAmount 0
par QosShowcaseIPv6.visualizer.linkBreakVisualizer iconTintColor "\"\""
par QosShowcaseIPv6.visualizer.linkBreakVisualizer fadeOutMode "\"realTime\""
attr enum realTime,animationTime,simulationTime
par QosShowcaseIPv6.visualizer.linkBreakVisualizer fadeOutTime 1s
attr unit s
par QosShowcaseIPv6.visualizer.linkBreakVisualizer fadeOutAnimationSpeed 0
par QosShowcaseIPv6.visualizer.linkBreakVisualizer zIndex 2
par QosShowcaseIPv6.visualizer.ieee80211Visualizer typename "\"inet.visualizer.canvas.linklayer.Ieee80211CanvasVisualizer\""
par QosShowcaseIPv6.visualizer.ieee80211Visualizer visualizationTargetModule "\"^.^\""
par QosShowcaseIPv6.visualizer.ieee80211Visualizer visualizationSubjectModule "\"^.^\""
par QosShowcaseIPv6.visualizer.ieee80211Visualizer tags "\"\""
par QosShowcaseIPv6.visualizer.ieee80211Visualizer networkNodeVisualizerModule "\"^.networkNodeVisualizer\""
par QosShowcaseIPv6.visualizer.ieee80211Visualizer displayAssociations false
par QosShowcaseIPv6.visualizer.ieee80211Visualizer nodeFilter "\"*\""
attr mutable ""
par QosShowcaseIPv6.visualizer.ieee80211Visualizer interfaceFilter "\"*\""
attr mutable ""
par QosShowcaseIPv6.visualizer.ieee80211Visualizer minPower -85dBm
attr unit dBm
par QosShowcaseIPv6.visualizer.ieee80211Visualizer maxPower -50dBm
attr unit dBm
par QosShowcaseIPv6.visualizer.ieee80211Visualizer icons "\"misc/signal_power_0 misc/signal_power_1 misc/signal_power_2 misc/signal_power_3\""
par QosShowcaseIPv6.visualizer.ieee80211Visualizer iconColor "\"dark\""
par QosShowcaseIPv6.visualizer.ieee80211Visualizer labelFont "\"<default>\""
par QosShowcaseIPv6.visualizer.ieee80211Visualizer labelColor "\"black\""
par QosShowcaseIPv6.visualizer.ieee80211Visualizer placementHint "\"top\""
par QosShowcaseIPv6.visualizer.ieee80211Visualizer placementPriority 0
par QosShowcaseIPv6.visualizer.ieee80211Visualizer zIndex 2
par QosShowcaseIPv6.visualizer.networkRouteVisualizer typename "\"inet.visualizer.canvas.networklayer.NetworkRouteCanvasVisualizer\""
par QosShowcaseIPv6.visualizer.networkRouteVisualizer visualizationTargetModule "\"^.^\""
par QosShowcaseIPv6.visualizer.networkRouteVisualizer visualizationSubjectModule "\"^.^\""
par QosShowcaseIPv6.visualizer.networkRouteVisualizer tags "\"\""
par QosShowcaseIPv6.visualizer.networkRouteVisualizer displayRoutes false
par QosShowcaseIPv6.visualizer.networkRouteVisualizer startPathSignal "\"packetReceivedFromUpper\""
par QosShowcaseIPv6.visualizer.networkRouteVisualizer extendPathSignal "\"packetReceivedFromLower\""
par QosShowcaseIPv6.visualizer.networkRouteVisualizer endPathSignal "\"packetSentToUpper\""
par QosShowcaseIPv6.visualizer.networkRouteVisualizer nodeFilter "\"*\""
attr mutable ""
par QosShowcaseIPv6.visualizer.networkRouteVisualizer packetFilter "(omnetpp::cValueHolder)holder: \"*\""
attr mutable ""
par QosShowcaseIPv6.visualizer.networkRouteVisualizer lineColor "\"dark\""
par QosShowcaseIPv6.visualizer.networkRouteVisualizer lineStyle "\"solid\""
par QosShowcaseIPv6.visualizer.networkRouteVisualizer lineWidth 3
par QosShowcaseIPv6.visualizer.networkRouteVisualizer lineSmooth false
par QosShowcaseIPv6.visualizer.networkRouteVisualizer lineShift 16
par QosShowcaseIPv6.visualizer.networkRouteVisualizer lineShiftMode "\"normal\""
par QosShowcaseIPv6.visualizer.networkRouteVisualizer lineContactSpacing 3
par QosShowcaseIPv6.visualizer.networkRouteVisualizer lineContactMode "\"rectangular\""
attr enum circular,rectangular
par QosShowcaseIPv6.visualizer.networkRouteVisualizer labelFormat "\"%n\""
par QosShowcaseIPv6.visualizer.networkRouteVisualizer labelFont "\"<default>, 8px\""
par QosShowcaseIPv6.visualizer.networkRouteVisualizer labelColor "\"\""
par QosShowcaseIPv6.visualizer.networkRouteVisualizer fadeOutMode "\"realTime\""
attr enum realTime,animationTime,simulationTime
par QosShowcaseIPv6.visualizer.networkRouteVisualizer fadeOutTime 1s
attr unit s
par QosShowcaseIPv6.visualizer.networkRouteVisualizer fadeOutAnimationSpeed 0
par QosShowcaseIPv6.visualizer.networkRouteVisualizer zIndex 3
par QosShowcaseIPv6.visualizer.routingTableVisualizer typename "\"inet.visualizer.canvas.networklayer.RoutingTableCanvasVisualizer\""
par QosShowcaseIPv6.visualizer.routingTableVisualizer visualizationTargetModule "\"^.^\""
par QosShowcaseIPv6.visualizer.routingTableVisualizer visualizationSubjectModule "\"^.^\""
par QosShowcaseIPv6.visualizer.routingTableVisualizer tags "\"\""
par QosShowcaseIPv6.visualizer.routingTableVisualizer displayRoutingTables false
par QosShowcaseIPv6.visualizer.routingTableVisualizer displayRoutesIndividually true
par QosShowcaseIPv6.visualizer.routingTableVisualizer displayLabels true
par QosShowcaseIPv6.visualizer.routingTableVisualizer destinationFilter "\"*\""
attr mutable ""
par QosShowcaseIPv6.visualizer.routingTableVisualizer nodeFilter "\"*\""
attr mutable ""
par QosShowcaseIPv6.visualizer.routingTableVisualizer multicastSourceNodeFilter "\"*\""
attr mutable ""
par QosShowcaseIPv6.visualizer.routingTableVisualizer multicastSourceAddressFilter "\"*\""
attr mutable ""
par QosShowcaseIPv6.visualizer.routingTableVisualizer multicastGroupFilter "\"*\""
attr mutable ""
par QosShowcaseIPv6.visualizer.routingTableVisualizer lineColor "\"black\""
par QosShowcaseIPv6.visualizer.routingTableVisualizer lineStyle "\"solid\""
par QosShowcaseIPv6.visualizer.routingTableVisualizer lineWidth 2
par QosShowcaseIPv6.visualizer.routingTableVisualizer lineShift 16
par QosShowcaseIPv6.visualizer.routingTableVisualizer lineShiftMode "\"normal\""
par QosShowcaseIPv6.visualizer.routingTableVisualizer lineContactSpacing 3
par QosShowcaseIPv6.visualizer.routingTableVisualizer lineContactMode "\"rectangular\""
attr enum circular,rectangular
par QosShowcaseIPv6.visualizer.routingTableVisualizer labelFormat "\"%d/%m -> %g (%n)\""
attr mutable ""
par QosShowcaseIPv6.visualizer.routingTableVisualizer labelFont "\"<default>, 8px\""
par QosShowcaseIPv6.visualizer.routingTableVisualizer labelColor "\"black\""
par QosShowcaseIPv6.visualizer.routingTableVisualizer zIndex 0
par QosShowcaseIPv6.visualizer.transportRouteVisualizer typename "\"inet.visualizer.canvas.transportlayer.TransportRouteCanvasVisualizer\""
par QosShowcaseIPv6.visualizer.transportRouteVisualizer visualizationTargetModule "\"^.^\""
par QosShowcaseIPv6.visualizer.transportRouteVisualizer visualizationSubjectModule "\"^.^\""
par QosShowcaseIPv6.visualizer.transportRouteVisualizer tags "\"\""
par QosShowcaseIPv6.visualizer.transportRouteVisualizer displayRoutes false
par QosShowcaseIPv6.visualizer.transportRouteVisualizer startPathSignal "\"packetReceivedFromUpper\""
par QosShowcaseIPv6.visualizer.transportRouteVisualizer extendPathSignal "\"packetReceivedFromLower\""
par QosShowcaseIPv6.visualizer.transportRouteVisualizer endPathSignal "\"packetSentToUpper\""
par QosShowcaseIPv6.visualizer.transportRouteVisualizer nodeFilter "\"*\""
attr mutable ""
par QosShowcaseIPv6.visualizer.transportRouteVisualizer packetFilter "(omnetpp::cValueHolder)holder: \"*\""
attr mutable ""
par QosShowcaseIPv6.visualizer.transportRouteVisualizer lineColor "\"dark\""
par QosShowcaseIPv6.visualizer.transportRouteVisualizer lineStyle "\"solid\""
par QosShowcaseIPv6.visualizer.transportRouteVisualizer lineWidth 3
par QosShowcaseIPv6.visualizer.transportRouteVisualizer lineSmooth false
par QosShowcaseIPv6.visualizer.transportRouteVisualizer lineShift 16
par QosShowcaseIPv6.visualizer.transportRouteVisualizer lineShiftMode "\"normal\""
par QosShowcaseIPv6.visualizer.transportRouteVisualizer lineContactSpacing 3
par QosShowcaseIPv6.visualizer.transportRouteVisualizer lineContactMode "\"rectangular\""
attr enum circular,rectangular
par QosShowcaseIPv6.visualizer.transportRouteVisualizer labelFormat "\"%n\""
par QosShowcaseIPv6.visualizer.transportRouteVisualizer labelFont "\"<default>, 8px\""
par QosShowcaseIPv6.visualizer.transportRouteVisualizer labelColor "\"\""
par QosShowcaseIPv6.visualizer.transportRouteVisualizer fadeOutMode "\"realTime\""
attr enum realTime,animationTime,simulationTime
par QosShowcaseIPv6.visualizer.transportRouteVisualizer fadeOutTime 1s
attr unit s
par QosShowcaseIPv6.visualizer.transportRouteVisualizer fadeOutAnimationSpeed 0
par QosShowcaseIPv6.visualizer.transportRouteVisualizer zIndex 4
par QosShowcaseIPv6.visualizer.transportConnectionVisualizer typename "\"inet.visualizer.canvas.transportlayer.TransportConnectionCanvasVisualizer\""
par QosShowcaseIPv6.visualizer.transportConnectionVisualizer visualizationTargetModule "\"^.^\""
par QosShowcaseIPv6.visualizer.transportConnectionVisualizer visualizationSubjectModule "\"^.^\""
par QosShowcaseIPv6.visualizer.transportConnectionVisualizer tags "\"\""
par QosShowcaseIPv6.visualizer.transportConnectionVisualizer networkNodeVisualizerModule "\"^.networkNodeVisualizer\""
par QosShowcaseIPv6.visualizer.transportConnectionVisualizer displayTransportConnections false
par QosShowcaseIPv6.visualizer.transportConnectionVisualizer sourceNodeFilter "\"*\""
attr mutable ""
par QosShowcaseIPv6.visualizer.transportConnectionVisualizer sourcePortFilter "\"*\""
attr mutable ""
par QosShowcaseIPv6.visualizer.transportConnectionVisualizer destinationNodeFilter "\"*\""
attr mutable ""
par QosShowcaseIPv6.visualizer.transportConnectionVisualizer destinationPortFilter "\"*\""
attr mutable ""
par QosShowcaseIPv6.visualizer.transportConnectionVisualizer icon "\"misc/marker_s\""
par QosShowcaseIPv6.visualizer.transportConnectionVisualizer iconColor "\"dark\""
par QosShowcaseIPv6.visualizer.transportConnectionVisualizer labelFont "\"<default>\""
par QosShowcaseIPv6.visualizer.transportConnectionVisualizer labelColor "\"black\""
par QosShowcaseIPv6.visualizer.transportConnectionVisualizer placementHint "\"top\""
par QosShowcaseIPv6.visualizer.transportConnectionVisualizer placementPriority 0
par QosShowcaseIPv6.visualizer.transportConnectionVisualizer zIndex 4
par QosShowcaseIPv6.visualizer.failureProtectionConfigurationVisualizer typename "\"inet.visualizer.canvas.configurator.FailureProtectionConfigurationCanvasVisualizer\""
par QosShowcaseIPv6.visualizer.failureProtectionConfigurationVisualizer visualizationTargetModule "\"^.^\""
par QosShowcaseIPv6.visualizer.failureProtectionConfigurationVisualizer visualizationSubjectModule "\"^.^\""
par QosShowcaseIPv6.visualizer.failureProtectionConfigurationVisualizer tags "\"\""
par QosShowcaseIPv6.visualizer.failureProtectionConfigurationVisualizer displayTrees false
par QosShowcaseIPv6.visualizer.failureProtectionConfigurationVisualizer lineColor "\"dark\""
par QosShowcaseIPv6.visualizer.failureProtectionConfigurationVisualizer lineStyle "\"solid\""
par QosShowcaseIPv6.visualizer.failureProtectionConfigurationVisualizer lineWidth 3
par QosShowcaseIPv6.visualizer.failureProtectionConfigurationVisualizer lineSmooth false
par QosShowcaseIPv6.visualizer.failureProtectionConfigurationVisualizer lineShift 16
par QosShowcaseIPv6.visualizer.failureProtectionConfigurationVisualizer lineShiftMode "\"normal\""
par QosShowcaseIPv6.visualizer.failureProtectionConfigurationVisualizer lineContactSpacing 3
par QosShowcaseIPv6.visualizer.failureProtectionConfigurationVisualizer lineContactMode "\"rectangular\""
attr enum circular,rectangular
par QosShowcaseIPv6.visualizer.failureProtectionConfigurationVisualizer failureProtectionConfiguratorModule "\"failureProtectionConfigurator\""
par QosShowcaseIPv6.visualizer.failureProtectionConfigurationVisualizer streamFilter "\"*\""
par QosShowcaseIPv6.visualizer.failureProtectionConfigurationVisualizer zIndex 3
par QosShowcaseIPv6.visualizer.streamRedundancyConfigurationVisualizer typename "\"inet.visualizer.canvas.configurator.StreamRedundancyConfigurationCanvasVisualizer\""
par QosShowcaseIPv6.visualizer.streamRedundancyConfigurationVisualizer visualizationTargetModule "\"^.^\""
par QosShowcaseIPv6.visualizer.streamRedundancyConfigurationVisualizer visualizationSubjectModule "\"^.^\""
par QosShowcaseIPv6.visualizer.streamRedundancyConfigurationVisualizer tags "\"\""
par QosShowcaseIPv6.visualizer.streamRedundancyConfigurationVisualizer displayTrees false
par QosShowcaseIPv6.visualizer.streamRedundancyConfigurationVisualizer lineColor "\"dark\""
par QosShowcaseIPv6.visualizer.streamRedundancyConfigurationVisualizer lineStyle "\"solid\""
par QosShowcaseIPv6.visualizer.streamRedundancyConfigurationVisualizer lineWidth 3
par QosShowcaseIPv6.visualizer.streamRedundancyConfigurationVisualizer lineSmooth false
par QosShowcaseIPv6.visualizer.streamRedundancyConfigurationVisualizer lineShift 16
par QosShowcaseIPv6.visualizer.streamRedundancyConfigurationVisualizer lineShiftMode "\"normal\""
par QosShowcaseIPv6.visualizer.streamRedundancyConfigurationVisualizer lineContactSpacing 3
par QosShowcaseIPv6.visualizer.streamRedundancyConfigurationVisualizer lineContactMode "\"rectangular\""
attr enum circular,rectangular
par QosShowcaseIPv6.visualizer.streamRedundancyConfigurationVisualizer streamRedundancyConfiguratorModule "\"streamRedundancyConfigurator\""
par QosShowcaseIPv6.visualizer.streamRedundancyConfigurationVisualizer streamFilter "\"*\""
par QosShowcaseIPv6.visualizer.streamRedundancyConfigurationVisualizer zIndex 3
par QosShowcaseIPv6.visualizer.channelVisualizer typename "\"inet.visualizer.canvas.physicallayer.ChannelCanvasVisualizer\""
par QosShowcaseIPv6.visualizer.channelVisualizer visualizationTargetModule "\"^.^\""
par QosShowcaseIPv6.visualizer.channelVisualizer visualizationSubjectModule "\"^.^\""
par QosShowcaseIPv6.visualizer.channelVisualizer tags "\"\""
par QosShowcaseIPv6.visualizer.channelVisualizer displayChannelActivity false
par QosShowcaseIPv6.visualizer.channelVisualizer nodeFilter "\"*\""
attr mutable ""
par QosShowcaseIPv6.visualizer.channelVisualizer packetFilter "(omnetpp::cValueHolder)holder: \"*\""
attr mutable ""
par QosShowcaseIPv6.visualizer.channelVisualizer lineColor "\"blue\""
par QosShowcaseIPv6.visualizer.channelVisualizer lineStyle "\"solid\""
par QosShowcaseIPv6.visualizer.channelVisualizer lineWidth 3
par QosShowcaseIPv6.visualizer.channelVisualizer lineShift 16
par QosShowcaseIPv6.visualizer.channelVisualizer lineShiftMode "\"normal\""
par QosShowcaseIPv6.visualizer.channelVisualizer lineContactSpacing 3
par QosShowcaseIPv6.visualizer.channelVisualizer lineContactMode "\"rectangular\""
attr enum circular,rectangular
par QosShowcaseIPv6.visualizer.channelVisualizer labelFormat "\"%n\""
par QosShowcaseIPv6.visualizer.channelVisualizer labelFont "\"<default>, 8px\""
par QosShowcaseIPv6.visualizer.channelVisualizer labelColor "\"blue\""
par QosShowcaseIPv6.visualizer.channelVisualizer fadeOutMode "\"realTime\""
attr enum realTime,animationTime,simulationTime
par QosShowcaseIPv6.visualizer.channelVisualizer fadeOutTime 1s
attr unit s
par QosShowcaseIPv6.visualizer.channelVisualizer fadeOutAnimationSpeed 0
par QosShowcaseIPv6.visualizer.channelVisualizer holdAnimationTime 0s
attr unit s
par QosShowcaseIPv6.visualizer.channelVisualizer zIndex 1
par QosShowcaseIPv6.visualizer typename "\"inet.visualizer.canvas.integrated.IntegratedCanvasVisualizer\""
par QosShowcaseIPv6 typename "\"qos_implementation.simulations.QosShowcaseIPv6\""

