version 3
run NonQos-0-20250402-14:32:18-15132
attr configname NonQos
attr datetime 20250402-14:32:18
attr datetimef 20250402-143218
attr experiment NonQos
attr inifile omnetpp.ini
attr iterationvars ""
attr iterationvarsd ""
attr iterationvarsf ""
attr measurement ""
attr network QosShowcase
attr processid 15132
attr repetition 0
attr replication #0
attr resultdir results
attr runnumber 0
attr seedset 0
config image-path ../../inet-master/images
config network QosShowcase
config sim-time-limit 10s
config *.*.wlan[*].bitrate 54Mbps
config *.client.numApps 4
config *.client.app[*].typename UdpBasicApp
config *.client.app[*].destAddresses "\"server\""
config *.client.app[*].startTime 1.0s+this.sendInterval*index/4
config *.client.app[*].stopTime 6.0s
config *.client.app[0].destPort 21
config *.client.app[1].destPort 80
config *.client.app[2].destPort 4000
config *.client.app[3].destPort 5000
config *.client.app[0].packetName "\"background\""
config *.client.app[1].packetName "\"best effort\""
config *.client.app[2].packetName "\"video\""
config *.client.app[3].packetName "\"voice\""
config *.server.numApps 4
config *.server.app[*].typename UdpSink
config *.server.app[0].localPort 21
config *.server.app[1].localPort 80
config *.server.app[2].localPort 4000
config *.server.app[3].localPort 5000
config *.client.app[0].messageLength 900B
config *.client.app[0].sendInterval normal(300us,10us)
config *.client.app[1].messageLength 900B
config *.client.app[1].sendInterval normal(250us,10us)
config *.client.app[2].messageLength 600B
config *.client.app[2].sendInterval normal(1ms,10us)
config *.client.app[3].messageLength 125B
config *.client.app[3].sendInterval normal(10ms,10us)
config *.client.app[*].recordScalar true
config *.client.app[*].recordVector true
config *.server.app[*].recordScalar true
config *.server.app[*].recordVector true

par QosShowcase.configurator typename "\"inet.networklayer.configurator.ipv4.Ipv4NetworkConfigurator\""
par QosShowcase.configurator minLinkWeight 0.001
par QosShowcase.configurator configureIsolatedNetworksSeparatly false
par QosShowcase.configurator config "<config>...</config> at content:1"
par QosShowcase.configurator assignAddresses true
par QosShowcase.configurator assignUniqueAddresses true
par QosShowcase.configurator assignDisjunctSubnetAddresses true
par QosShowcase.configurator addStaticRoutes true
par QosShowcase.configurator addDefaultRoutes true
par QosShowcase.configurator addSubnetRoutes true
par QosShowcase.configurator addDirectRoutes true
par QosShowcase.configurator optimizeRoutes true
par QosShowcase.configurator updateRoutes false
par QosShowcase.configurator dumpTopology false
par QosShowcase.configurator dumpLinks false
par QosShowcase.configurator dumpAddresses false
par QosShowcase.configurator dumpRoutes false
par QosShowcase.configurator dumpConfig "\"\""
par QosShowcase.ap.radioIn[0].channel typename "\"ned.IdealChannel\""
par QosShowcase.ap.interfaceTable typename "\"inet.networklayer.common.InterfaceTable\""
par QosShowcase.ap.interfaceTable displayAddresses false
par QosShowcase.ap.macTable typename "\"inet.linklayer.ethernet.common.MacForwardingTable\""
par QosShowcase.ap.macTable agingTime 120s
attr unit s
par QosShowcase.ap.macTable forwardingTable []
attr mutable ""
par QosShowcase.ap.macTable forwardingTableFile "\"\""
par QosShowcase.ap.macTable interfaceTableModule "\"QosShowcase.ap.interfaceTable\""
par QosShowcase.ap.macTable displayStringTextFormat "\"addr: %a\\nvlan: %v\""
par QosShowcase.ap.mobility typename "\"inet.mobility.static.StationaryMobility\""
par QosShowcase.ap.mobility subjectModule "\"^\""
par QosShowcase.ap.mobility coordinateSystemModule "\"\""
par QosShowcase.ap.mobility displayStringTextFormat "\"p: %p\\nv: %v\""
attr mutable ""
par QosShowcase.ap.mobility updateDisplayString true
par QosShowcase.ap.mobility constraintAreaMinX "-inf m"
attr unit m
par QosShowcase.ap.mobility constraintAreaMinY "-inf m"
attr unit m
par QosShowcase.ap.mobility constraintAreaMinZ "-inf m"
attr unit m
par QosShowcase.ap.mobility constraintAreaMaxX "inf m"
attr unit m
par QosShowcase.ap.mobility constraintAreaMaxY "inf m"
attr unit m
par QosShowcase.ap.mobility constraintAreaMaxZ "inf m"
attr unit m
par QosShowcase.ap.mobility initialX "nan m"
attr unit m
par QosShowcase.ap.mobility initialY "nan m"
attr unit m
par QosShowcase.ap.mobility initialZ 0m
attr unit m
par QosShowcase.ap.mobility initialLatitude "nan deg"
attr unit deg
par QosShowcase.ap.mobility initialLongitude "nan deg"
attr unit deg
par QosShowcase.ap.mobility initialAltitude 0m
attr unit m
par QosShowcase.ap.mobility initialHeading 0deg
attr unit deg
par QosShowcase.ap.mobility initialElevation 0deg
attr unit deg
par QosShowcase.ap.mobility initialBank 0deg
attr unit deg
par QosShowcase.ap.mobility initFromDisplayString true
par QosShowcase.ap.mobility updateFromDisplayString true
par QosShowcase.ap.li typename "\"inet.common.MessageDispatcher\""
par QosShowcase.ap.li displayStringTextFormat "\"processed %p pk (%l)\""
par QosShowcase.ap.li interfaceTableModule "\"QosShowcase.ap.interfaceTable\""
par QosShowcase.ap.li forwardServiceRegistration true
par QosShowcase.ap.li forwardProtocolRegistration true
par QosShowcase.ap.li interfaceMapping {}
par QosShowcase.ap.li serviceMapping {}
par QosShowcase.ap.li protocolMapping {}
par QosShowcase.ap.wlan[0].radioIn.channel typename "\"ned.IdealChannel\""
par QosShowcase.ap.wlan[0].llc.upperLayerOut.channel typename "\"ned.IdealChannel\""
par QosShowcase.ap.wlan[0].upperLayerIn.channel typename "\"ned.IdealChannel\""
par QosShowcase.ap.wlan[0].mib typename "\"inet.linklayer.ieee80211.mib.Ieee80211Mib\""
par QosShowcase.ap.wlan[0].llc typename "\"inet.linklayer.ieee80211.portal.Ieee80211Portal\""
par QosShowcase.ap.wlan[0].llc fcsMode "\"declared\""
attr enum declared,computed
par QosShowcase.ap.wlan[0].mgmt typename "\"inet.linklayer.ieee80211.mgmt.Ieee80211MgmtAp\""
par QosShowcase.ap.wlan[0].mgmt ssid "\"SSID\""
par QosShowcase.ap.wlan[0].mgmt beaconInterval 0.1s
attr unit s
par QosShowcase.ap.wlan[0].mgmt numAuthSteps 4
par QosShowcase.ap.wlan[0].mgmt interfaceTableModule "\"QosShowcase.ap.interfaceTable\""
par QosShowcase.ap.wlan[0].mgmt radioModule "\"^.radio\""
par QosShowcase.ap.wlan[0].mgmt mibModule "\"QosShowcase.ap.wlan[0].mib\""
par QosShowcase.ap.wlan[0].mgmt macModule "\"QosShowcase.ap.wlan[0].mac\""
par QosShowcase.ap.wlan[0].mac.dcf.channelAccess.pendingQueue typename "\"inet.linklayer.ieee80211.mac.queue.PendingQueue\""
par QosShowcase.ap.wlan[0].mac.dcf.channelAccess.pendingQueue displayStringTextFormat "\"contains %p pk (%l) pushed %u\\npulled %o removed %r dropped %d\""
par QosShowcase.ap.wlan[0].mac.dcf.channelAccess.pendingQueue packetCapacity 100
par QosShowcase.ap.wlan[0].mac.dcf.channelAccess.pendingQueue dataCapacity -1b
attr unit b
par QosShowcase.ap.wlan[0].mac.dcf.channelAccess.pendingQueue dropperClass "\"inet::queueing::PacketAtCollectionEndDropper\""
par QosShowcase.ap.wlan[0].mac.dcf.channelAccess.pendingQueue comparatorClass "\"inet::ieee80211::MgmtOverDataComparator\""
par QosShowcase.ap.wlan[0].mac.dcf.channelAccess.pendingQueue bufferModule "\"\""
scalar QosShowcase.ap.wlan[0].mac.dcf.channelAccess.pendingQueue queueLength:last 7
attr autoWarmupFilter false
attr interpolationmode sample-hold
attr recordingmode last
attr source "warmup(atomic(constant0(packetPushEnded) + count(packetPushStarted) - count(packetPulled) - count(packetRemoved) - count(packetDropped)))"
attr title "queue length, last"
attr unit pk
scalar QosShowcase.ap.wlan[0].mac.dcf.channelAccess.pendingQueue queueLength:max 11
attr autoWarmupFilter false
attr interpolationmode sample-hold
attr recordingmode max
attr source "warmup(atomic(constant0(packetPushEnded) + count(packetPushStarted) - count(packetPulled) - count(packetRemoved) - count(packetDropped)))"
attr title "queue length, max"
attr unit pk
scalar QosShowcase.ap.wlan[0].mac.dcf.channelAccess.pendingQueue queueLength:timeavg 0.13220188221825
attr autoWarmupFilter false
attr interpolationmode sample-hold
attr recordingmode timeavg
attr source "warmup(atomic(constant0(packetPushEnded) + count(packetPushStarted) - count(packetPulled) - count(packetRemoved) - count(packetDropped)))"
attr title "queue length, timeavg"
attr unit pk
scalar QosShowcase.ap.wlan[0].mac.dcf.channelAccess.pendingQueue queueBitLength:last 53984
attr autoWarmupFilter false
attr interpolationmode sample-hold
attr recordingmode last
attr source "warmup(atomic(constant0(packetPushEnded) + sum(packetLength(packetPushStarted)) - sum(packetLength(packetPulled)) - sum(packetLength(packetRemoved)) - sum(packetLength(packetDropped))))"
attr title "queue bit length, last"
attr unit b
scalar QosShowcase.ap.wlan[0].mac.dcf.channelAccess.pendingQueue queueBitLength:max 80032
attr autoWarmupFilter false
attr interpolationmode sample-hold
attr recordingmode max
attr source "warmup(atomic(constant0(packetPushEnded) + sum(packetLength(packetPushStarted)) - sum(packetLength(packetPulled)) - sum(packetLength(packetRemoved)) - sum(packetLength(packetDropped))))"
attr title "queue bit length, max"
attr unit b
scalar QosShowcase.ap.wlan[0].mac.dcf.channelAccess.pendingQueue queueBitLength:timeavg 951.7725795699
attr autoWarmupFilter false
attr interpolationmode sample-hold
attr recordingmode timeavg
attr source "warmup(atomic(constant0(packetPushEnded) + sum(packetLength(packetPushStarted)) - sum(packetLength(packetPulled)) - sum(packetLength(packetRemoved)) - sum(packetLength(packetDropped))))"
attr title "queue bit length, timeavg"
attr unit b
statistic QosShowcase.ap.wlan[0].mac.dcf.channelAccess.pendingQueue queueingTime:histogram
field count 67
field mean 0.7471807906304
field stddev 0.45629381946687
field min 0
field max 1.043645975243
field sum 50.061112972237
field sqrsum 51.146169249556
attr interpolationmode none
attr recordingmode histogram
attr source queueingTime(packetPulled)
attr title "queueing times"
attr unit s
bin	-inf	0
bin	0	18
bin	0.02	0
bin	0.04	0
bin	0.06	0
bin	0.08	0
bin	0.1	0
bin	0.12	0
bin	0.14	0
bin	0.16	0
bin	0.18	0
bin	0.2	0
bin	0.22	0
bin	0.24	0
bin	0.26	0
bin	0.28	0
bin	0.3	0
bin	0.32	0
bin	0.34	0
bin	0.36	0
bin	0.38	0
bin	0.4	0
bin	0.42	0
bin	0.44	0
bin	0.46	0
bin	0.48	0
bin	0.5	0
bin	0.52	0
bin	0.54	0
bin	0.56	0
bin	0.58	0
bin	0.6	0
bin	0.62	0
bin	0.64	0
bin	0.66	0
bin	0.68	0
bin	0.7	0
bin	0.72	0
bin	0.74	0
bin	0.76	0
bin	0.78	0
bin	0.8	0
bin	0.82	0
bin	0.84	0
bin	0.86	0
bin	0.88	0
bin	0.9	0
bin	0.92	0
bin	0.94	0
bin	0.96	0
bin	0.98	0
bin	1	24
bin	1.02	21
bin	1.04	4
bin	1.06	0
bin	1.08	0
bin	1.1	0
bin	1.12	0
bin	1.14	0
bin	1.16	0
bin	1.18	0
bin	1.2	0
bin	1.22	0
bin	1.24	0
bin	1.26	0
bin	1.28	0
bin	1.3	0
bin	1.32	0
scalar QosShowcase.ap.wlan[0].mac.dcf.channelAccess.pendingQueue outgoingPackets:count 67
attr recordingmode count
attr source packetPulled
attr title "outgoing packets, count"
attr unit pk
scalar QosShowcase.ap.wlan[0].mac.dcf.channelAccess.pendingQueue outgoingPacketLengths:sum 356256
attr interpolationmode none
attr recordingmode sum
attr source packetLength(packetPulled)
attr title "outgoing packet lengths, sum"
attr unit b
statistic QosShowcase.ap.wlan[0].mac.dcf.channelAccess.pendingQueue outgoingPacketLengths:histogram
field count 67
field mean 5317.2537313433
field stddev 3295.8874803503
field min 272
field max 7712
field sum 356256
field sqrsum 2611253248
attr interpolationmode none
attr recordingmode histogram
attr source packetLength(packetPulled)
attr title "outgoing packet lengths"
attr unit b
bin	-inf	0
bin	0	0
bin	200	6
bin	400	14
bin	600	0
bin	800	0
bin	1000	0
bin	1200	0
bin	1400	0
bin	1600	0
bin	1800	0
bin	2000	0
bin	2200	0
bin	2400	0
bin	2600	0
bin	2800	0
bin	3000	0
bin	3200	0
bin	3400	0
bin	3600	0
bin	3800	0
bin	4000	0
bin	4200	0
bin	4400	0
bin	4600	0
bin	4800	0
bin	5000	0
bin	5200	6
bin	5400	0
bin	5600	0
bin	5800	0
bin	6000	0
bin	6200	0
bin	6400	0
bin	6600	0
bin	6800	0
bin	7000	0
bin	7200	0
bin	7400	0
bin	7600	41
bin	7800	0
bin	8000	0
bin	8200	0
bin	8400	0
bin	8600	0
bin	8800	0
bin	9000	0
bin	9200	0
bin	9400	0
bin	9600	0
statistic QosShowcase.ap.wlan[0].mac.dcf.channelAccess.pendingQueue flowQueueingTime:histogram
field count 0
field mean nan
field stddev nan
field min nan
field max nan
field sum 0
field sqrsum 0
attr interpolationmode none
attr recordingmode histogram
attr source queueingTime(demuxFlow(packetPulled))
attr title "flow queueing times"
attr unit s
bin	-inf	0
bin	0	0
bin	1	0
scalar QosShowcase.ap.wlan[0].mac.dcf.channelAccess.pendingQueue incomingPackets:count 74
attr recordingmode count
attr source packetPushStarted
attr title "incoming packets, count"
attr unit pk
scalar QosShowcase.ap.wlan[0].mac.dcf.channelAccess.pendingQueue incomingPacketLengths:sum 410240
attr interpolationmode none
attr recordingmode sum
attr source packetLength(packetPushStarted)
attr title "incoming packet lengths, sum"
attr unit b
statistic QosShowcase.ap.wlan[0].mac.dcf.channelAccess.pendingQueue incomingPacketLengths:histogram
field count 74
field mean 5543.7837837838
field stddev 3212.3392162537
field min 272
field max 7712
field sum 410240
field sqrsum 3027577856
attr interpolationmode none
attr recordingmode histogram
attr source packetLength(packetPushStarted)
attr title "incoming packet lengths"
attr unit b
bin	-inf	0
bin	0	0
bin	200	6
bin	400	14
bin	600	0
bin	800	0
bin	1000	0
bin	1200	0
bin	1400	0
bin	1600	0
bin	1800	0
bin	2000	0
bin	2200	0
bin	2400	0
bin	2600	0
bin	2800	0
bin	3000	0
bin	3200	0
bin	3400	0
bin	3600	0
bin	3800	0
bin	4000	0
bin	4200	0
bin	4400	0
bin	4600	0
bin	4800	0
bin	5000	0
bin	5200	6
bin	5400	0
bin	5600	0
bin	5800	0
bin	6000	0
bin	6200	0
bin	6400	0
bin	6600	0
bin	6800	0
bin	7000	0
bin	7200	0
bin	7400	0
bin	7600	48
bin	7800	0
bin	8000	0
bin	8200	0
bin	8400	0
bin	8600	0
bin	8800	0
bin	9000	0
bin	9200	0
bin	9400	0
bin	9600	0
scalar QosShowcase.ap.wlan[0].mac.dcf.channelAccess.pendingQueue droppedPacketsQueueOverflow:count 0
attr interpolationmode none
attr recordingmode count
attr source packetDropReasonIsQueueOverflow(packetDropped)
attr title "dropped packets: queue overflow, count"
attr unit pk
scalar QosShowcase.ap.wlan[0].mac.dcf.channelAccess.pendingQueue droppedPacketLengthsQueueOverflow:sum 0
attr interpolationmode none
attr recordingmode sum
attr source packetLength(packetDropReasonIsQueueOverflow(packetDropped))
attr title "dropped packet lengths: queue overflow, sum"
attr unit b
par QosShowcase.ap.wlan[0].mac.dcf.channelAccess.inProgressFrames typename "\"inet.linklayer.ieee80211.mac.queue.InProgressFrames\""
par QosShowcase.ap.wlan[0].mac.dcf.channelAccess.inProgressFrames pendingQueueModule "\"^.pendingQueue\""
par QosShowcase.ap.wlan[0].mac.dcf.channelAccess.inProgressFrames originatorMacDataServiceModule "\"^.^.originatorMacDataService\""
par QosShowcase.ap.wlan[0].mac.dcf.channelAccess.inProgressFrames ackHandlerModule "\"^.^.ackHandler\""
statistic QosShowcase.ap.wlan[0].mac.dcf.channelAccess.inProgressFrames queueingTime:histogram
field count 65
field mean 0.00062682677424615
field stddev 0.0006864553994601
field min 3.8e-05
field max 0.003304051566
field sum 0.040743740326
field sqrsum 5.5697412307936e-05
attr interpolationmode none
attr recordingmode histogram
attr source queueingTime(packetDequeued)
attr title "queueing times"
bin	-inf	0
bin	0	11
bin	5e-05	9
bin	0.0001	0
bin	0.00015	2
bin	0.0002	9
bin	0.00025	0
bin	0.0003	0
bin	0.00035	0
bin	0.0004	2
bin	0.00045	3
bin	0.0005	2
bin	0.00055	4
bin	0.0006	0
bin	0.00065	1
bin	0.0007	0
bin	0.00075	1
bin	0.0008	0
bin	0.00085	4
bin	0.0009	1
bin	0.00095	0
bin	0.001	1
bin	0.00105	1
bin	0.0011	1
bin	0.00115	0
bin	0.0012	0
bin	0.00125	4
bin	0.0013	1
bin	0.00135	1
bin	0.0014	1
bin	0.00145	0
bin	0.0015	2
bin	0.00155	0
bin	0.0016	0
bin	0.00165	0
bin	0.0017	0
bin	0.00175	0
bin	0.0018	0
bin	0.00185	0
bin	0.0019	0
bin	0.00195	2
bin	0.002	0
bin	0.00205	0
bin	0.0021	0
bin	0.00215	0
bin	0.0022	0
bin	0.00225	0
bin	0.0023	0
bin	0.00235	0
bin	0.0024	0
bin	0.00245	0
bin	0.0025	0
bin	0.00255	0
bin	0.0026	0
bin	0.00265	0
bin	0.0027	0
bin	0.00275	0
bin	0.0028	1
bin	0.00285	0
bin	0.0029	0
bin	0.00295	0
bin	0.003	0
bin	0.00305	0
bin	0.0031	0
bin	0.00315	0
bin	0.0032	0
bin	0.00325	0
bin	0.0033	1
bin	0.00335	0
bin	0.0034	0
bin	0.00345	0
bin	0.0035	0
bin	0.00355	0
bin	0.0036	0
bin	0.00365	0
bin	0.0037	0
bin	0.00375	0
bin	0.0038	0
bin	0.00385	0
bin	0.0039	0
bin	0.00395	0
bin	0.004	0
bin	0.00405	0
bin	0.0041	0
bin	0.00415	0
scalar QosShowcase.ap.wlan[0].mac.dcf.channelAccess.inProgressFrames queueLength:max 2
attr autoWarmupFilter false
attr interpolationmode sample-hold
attr recordingmode max
attr source "warmup(count(packetEnqueued) - count(packetDequeued))"
attr title "queue length, max"
scalar QosShowcase.ap.wlan[0].mac.dcf.channelAccess.inProgressFrames queueLength:timeavg 0.04018265387351
attr autoWarmupFilter false
attr interpolationmode sample-hold
attr recordingmode timeavg
attr source "warmup(count(packetEnqueued) - count(packetDequeued))"
attr title "queue length, timeavg"
par QosShowcase.ap.wlan[0].mac.dcf.channelAccess.contention typename "\"inet.linklayer.ieee80211.mac.contention.Contention\""
par QosShowcase.ap.wlan[0].mac.dcf.channelAccess.contention initialChannelBusy true
par QosShowcase.ap.wlan[0].mac.dcf.channelAccess.contention backoffOptimization true
scalar QosShowcase.ap.wlan[0].mac.dcf.channelAccess.contention channelAccessGranted:count 67
attr recordingmode count
attr title "channel access granted, count"
scalar QosShowcase.ap.wlan[0].mac.dcf.channelAccess.contention stateChanged:count 1040
attr enum IDLE,DEFER,IFS_AND_BACKOFF
attr interpolationmode none
attr recordingmode count
attr title "contention state changed, count"
attr type enum
par QosShowcase.ap.wlan[0].mac.dcf.channelAccess typename "\"inet.linklayer.ieee80211.mac.channelaccess.Dcaf\""
par QosShowcase.ap.wlan[0].mac.dcf.channelAccess difsn -1
par QosShowcase.ap.wlan[0].mac.dcf.channelAccess cwMin -1
par QosShowcase.ap.wlan[0].mac.dcf.channelAccess cwMax -1
par QosShowcase.ap.wlan[0].mac.dcf.channelAccess rxModule "\"^.^.rx\""
scalar QosShowcase.ap.wlan[0].mac.dcf.channelAccess channelOwnershipChanged:count 133
attr interpolationmode sample-hold
attr recordingmode count
attr title "channel ownership, count"
par QosShowcase.ap.wlan[0].mac.dcf.originatorMacDataService.fragmentationPolicy typename "\"inet.linklayer.ieee80211.mac.fragmentation.BasicFragmentationPolicy\""
par QosShowcase.ap.wlan[0].mac.dcf.originatorMacDataService.fragmentationPolicy fragmentationThreshold 1500B
attr unit B
par QosShowcase.ap.wlan[0].mac.dcf.originatorMacDataService typename "\"inet.linklayer.ieee80211.mac.originator.OriginatorMacDataService\""
scalar QosShowcase.ap.wlan[0].mac.dcf.originatorMacDataService packetAggregated:count 0
attr recordingmode count
attr title "packets aggregated, count"
scalar QosShowcase.ap.wlan[0].mac.dcf.originatorMacDataService packetFragmented:count 0
attr recordingmode count
attr title "packets fragmented, count"
par QosShowcase.ap.wlan[0].mac.dcf.recipientMacDataService typename "\"inet.linklayer.ieee80211.mac.recipient.RecipientMacDataService\""
scalar QosShowcase.ap.wlan[0].mac.dcf.recipientMacDataService packetDropDuplicateDetected:count 0
attr interpolationmode none
attr recordingmode count
attr source packetDropReasonIsDuplicateDetected(packetDropped)
attr title "packet drops: duplicate detected, count"
scalar QosShowcase.ap.wlan[0].mac.dcf.recipientMacDataService packetDropDuplicateDetected:sum(packetBytes) 0
attr interpolationmode none
attr recordingmode sum(packetBytes)
attr source packetDropReasonIsDuplicateDetected(packetDropped)
attr title "packet drops: duplicate detected, sum(packetBytes)"
scalar QosShowcase.ap.wlan[0].mac.dcf.recipientMacDataService packetDeaggregated:count 0
attr recordingmode count
attr title "packets deaggregated, count"
scalar QosShowcase.ap.wlan[0].mac.dcf.recipientMacDataService packetDefragmented:count 64
attr recordingmode count
attr title "packets defragmented, count"
par QosShowcase.ap.wlan[0].mac.dcf.rateSelection typename "\"inet.linklayer.ieee80211.mac.rateselection.RateSelection\""
par QosShowcase.ap.wlan[0].mac.dcf.rateSelection rateControlModule "\"^.rateControl\""
par QosShowcase.ap.wlan[0].mac.dcf.rateSelection multicastFrameBitrate -1bps
attr unit bps
par QosShowcase.ap.wlan[0].mac.dcf.rateSelection responseAckFrameBitrate -1bps
attr unit bps
par QosShowcase.ap.wlan[0].mac.dcf.rateSelection responseCtsFrameBitrate -1bps
attr unit bps
par QosShowcase.ap.wlan[0].mac.dcf.rateSelection dataFrameBitrate 5.4e+07bps
attr unit bps
par QosShowcase.ap.wlan[0].mac.dcf.rateSelection dataFrameBandwidth "nan Hz"
attr unit Hz
par QosShowcase.ap.wlan[0].mac.dcf.rateSelection dataFrameNumSpatialStreams -1
par QosShowcase.ap.wlan[0].mac.dcf.rateSelection mgmtFrameBitrate -1bps
attr unit bps
par QosShowcase.ap.wlan[0].mac.dcf.rateSelection controlFrameBitrate -1bps
attr unit bps
par QosShowcase.ap.wlan[0].mac.dcf.recoveryProcedure typename "\"inet.linklayer.ieee80211.mac.originator.NonQosRecoveryProcedure\""
par QosShowcase.ap.wlan[0].mac.dcf.recoveryProcedure cwCalculatorModule "\"^.channelAccess\""
par QosShowcase.ap.wlan[0].mac.dcf.recoveryProcedure rtsPolicyModule "\"^.rtsPolicy\""
par QosShowcase.ap.wlan[0].mac.dcf.recoveryProcedure shortRetryLimit 7
par QosShowcase.ap.wlan[0].mac.dcf.recoveryProcedure longRetryLimit 4
scalar QosShowcase.ap.wlan[0].mac.dcf.recoveryProcedure retryLimitReached:count 0
attr recordingmode count
attr title "retry limit reached, count"
par QosShowcase.ap.wlan[0].mac.dcf.originatorProtectionMechanism typename "\"inet.linklayer.ieee80211.mac.protectionmechanism.OriginatorProtectionMechanism\""
par QosShowcase.ap.wlan[0].mac.dcf.originatorProtectionMechanism rateSelectionModule "\"^.rateSelection\""
par QosShowcase.ap.wlan[0].mac.dcf.ackHandler typename "\"inet.linklayer.ieee80211.mac.originator.AckHandler\""
par QosShowcase.ap.wlan[0].mac.dcf.originatorAckPolicy typename "\"inet.linklayer.ieee80211.mac.originator.OriginatorAckPolicy\""
par QosShowcase.ap.wlan[0].mac.dcf.originatorAckPolicy rateSelectionModule "\"^.rateSelection\""
par QosShowcase.ap.wlan[0].mac.dcf.originatorAckPolicy ackTimeout -1s
attr unit s
par QosShowcase.ap.wlan[0].mac.dcf.recipientAckPolicy typename "\"inet.linklayer.ieee80211.mac.recipient.RecipientAckPolicy\""
par QosShowcase.ap.wlan[0].mac.dcf.recipientAckPolicy rateSelectionModule "\"^.rateSelection\""
par QosShowcase.ap.wlan[0].mac.dcf.rtsPolicy typename "\"inet.linklayer.ieee80211.mac.originator.RtsPolicy\""
par QosShowcase.ap.wlan[0].mac.dcf.rtsPolicy rateSelectionModule "\"^.rateSelection\""
par QosShowcase.ap.wlan[0].mac.dcf.rtsPolicy ctsTimeout -1s
attr unit s
par QosShowcase.ap.wlan[0].mac.dcf.rtsPolicy rtsThreshold 2346B
attr unit B
par QosShowcase.ap.wlan[0].mac.dcf.ctsPolicy typename "\"inet.linklayer.ieee80211.mac.recipient.CtsPolicy\""
par QosShowcase.ap.wlan[0].mac.dcf.ctsPolicy rxModule "\"^.^.rx\""
par QosShowcase.ap.wlan[0].mac.dcf.ctsPolicy rateSelectionModule "\"^.rateSelection\""
par QosShowcase.ap.wlan[0].mac.dcf typename "\"inet.linklayer.ieee80211.mac.coordinationfunction.Dcf\""
par QosShowcase.ap.wlan[0].mac.dcf rxModule "\"^.rx\""
par QosShowcase.ap.wlan[0].mac.dcf txModule "\"^.tx\""
scalar QosShowcase.ap.wlan[0].mac.dcf packetReceivedFromPeer:count 118
attr interpolationmode none
attr recordingmode count
attr title "packets received, count"
scalar QosShowcase.ap.wlan[0].mac.dcf packetReceivedFromPeer:sum(packetBytes) 51428
attr interpolationmode none
attr recordingmode sum(packetBytes)
attr title "packets received, sum(packetBytes)"
scalar QosShowcase.ap.wlan[0].mac.dcf packetReceivedFromPeerUnicast:count 116
attr interpolationmode none
attr recordingmode count
attr source ieee80211Unicast(packetReceivedFromPeer)
attr title "packets received: unicast, count"
scalar QosShowcase.ap.wlan[0].mac.dcf packetReceivedFromPeerUnicast:sum(packetBytes) 51348
attr interpolationmode none
attr recordingmode sum(packetBytes)
attr source ieee80211Unicast(packetReceivedFromPeer)
attr title "packets received: unicast, sum(packetBytes)"
scalar QosShowcase.ap.wlan[0].mac.dcf packetReceivedFromPeerMulticast:count 2
attr interpolationmode none
attr recordingmode count
attr source ieee80211Multicast(packetReceivedFromPeer)
attr title "packets received: multicast, count"
scalar QosShowcase.ap.wlan[0].mac.dcf packetReceivedFromPeerMulticast:sum(packetBytes) 80
attr interpolationmode none
attr recordingmode sum(packetBytes)
attr source ieee80211Multicast(packetReceivedFromPeer)
attr title "packets received: multicast, sum(packetBytes)"
scalar QosShowcase.ap.wlan[0].mac.dcf packetReceivedFromPeerBroadcast:count 2
attr interpolationmode none
attr recordingmode count
attr source ieee80211Broadcast(packetReceivedFromPeer)
attr title "packets received: broadcast, count"
scalar QosShowcase.ap.wlan[0].mac.dcf packetReceivedFromPeerBroadcast:sum(packetBytes) 80
attr interpolationmode none
attr recordingmode sum(packetBytes)
attr source ieee80211Broadcast(packetReceivedFromPeer)
attr title "packets received: broadcast, sum(packetBytes)"
scalar QosShowcase.ap.wlan[0].mac.dcf packetReceivedFromPeerWithRetry:count 1
attr interpolationmode none
attr recordingmode count
attr source ieee80211Retry(packetReceivedFromPeer)
attr title "packets received: with retry, count"
scalar QosShowcase.ap.wlan[0].mac.dcf packetReceivedFromPeerWithRetry:sum(packetBytes) 964
attr interpolationmode none
attr recordingmode sum(packetBytes)
attr source ieee80211Retry(packetReceivedFromPeer)
attr title "packets received: with retry, sum(packetBytes)"
scalar QosShowcase.ap.wlan[0].mac.dcf packetReceivedFromPeerWithoutRetry:count 117
attr interpolationmode none
attr recordingmode count
attr source ieee80211NotRetry(packetReceivedFromPeer)
attr title "packets received: without retry, count"
scalar QosShowcase.ap.wlan[0].mac.dcf packetReceivedFromPeerWithoutRetry:sum(packetBytes) 50464
attr interpolationmode none
attr recordingmode sum(packetBytes)
attr source ieee80211NotRetry(packetReceivedFromPeer)
attr title "packets received: without retry, sum(packetBytes)"
scalar QosShowcase.ap.wlan[0].mac.dcf packetSentToPeer:count 128
attr interpolationmode none
attr recordingmode count
attr title "packets sent, count"
scalar QosShowcase.ap.wlan[0].mac.dcf packetSentToPeer:sum(packetBytes) 44736
attr interpolationmode none
attr recordingmode sum(packetBytes)
attr title "packets sent, sum(packetBytes)"
scalar QosShowcase.ap.wlan[0].mac.dcf packetSentToPeerUnicast:count 117
attr interpolationmode none
attr recordingmode count
attr source ieee80211Unicast(packetSentToPeer)
attr title "packets sent: unicast, count"
scalar QosShowcase.ap.wlan[0].mac.dcf packetSentToPeerUnicast:sum(packetBytes) 44112
attr interpolationmode none
attr recordingmode sum(packetBytes)
attr source ieee80211Unicast(packetSentToPeer)
attr title "packets sent: unicast, sum(packetBytes)"
scalar QosShowcase.ap.wlan[0].mac.dcf packetSentToPeerMulticast:count 11
attr interpolationmode none
attr recordingmode count
attr source ieee80211Multicast(packetSentToPeer)
attr title "packets sent: multicast, count"
scalar QosShowcase.ap.wlan[0].mac.dcf packetSentToPeerMulticast:sum(packetBytes) 624
attr interpolationmode none
attr recordingmode sum(packetBytes)
attr source ieee80211Multicast(packetSentToPeer)
attr title "packets sent: multicast, sum(packetBytes)"
scalar QosShowcase.ap.wlan[0].mac.dcf packetSentToPeerBroadcast:count 11
attr interpolationmode none
attr recordingmode count
attr source ieee80211Broadcast(packetSentToPeer)
attr title "packets sent: broadcast , count"
scalar QosShowcase.ap.wlan[0].mac.dcf packetSentToPeerBroadcast:sum(packetBytes) 624
attr interpolationmode none
attr recordingmode sum(packetBytes)
attr source ieee80211Broadcast(packetSentToPeer)
attr title "packets sent: broadcast , sum(packetBytes)"
scalar QosShowcase.ap.wlan[0].mac.dcf packetSentToPeerWithRetry:count 2
attr interpolationmode none
attr recordingmode count
attr source ieee80211Retry(packetSentToPeer)
attr title "packets sent: with retry, count"
scalar QosShowcase.ap.wlan[0].mac.dcf packetSentToPeerWithRetry:sum(packetBytes) 1928
attr interpolationmode none
attr recordingmode sum(packetBytes)
attr source ieee80211Retry(packetSentToPeer)
attr title "packets sent: with retry, sum(packetBytes)"
scalar QosShowcase.ap.wlan[0].mac.dcf packetSentToPeerWithoutRetry:count 126
attr interpolationmode none
attr recordingmode count
attr source ieee80211NotRetry(packetSentToPeer)
attr title "packets sent: without retry, count"
scalar QosShowcase.ap.wlan[0].mac.dcf packetSentToPeerWithoutRetry:sum(packetBytes) 42808
attr interpolationmode none
attr recordingmode sum(packetBytes)
attr source ieee80211NotRetry(packetSentToPeer)
attr title "packets sent: without retry, sum(packetBytes)"
scalar QosShowcase.ap.wlan[0].mac.dcf packetDrop:count 0
attr interpolationmode none
attr recordingmode count
attr source packetDropped
attr title "packet drops, count"
scalar QosShowcase.ap.wlan[0].mac.dcf packetDrop:sum(packetBytes) 0
attr interpolationmode none
attr recordingmode sum(packetBytes)
attr source packetDropped
attr title "packet drops, sum(packetBytes)"
scalar QosShowcase.ap.wlan[0].mac.dcf packetDropNotAddressedToUs:count 0
attr interpolationmode none
attr recordingmode count
attr source packetDropReasonIsNotAddressedToUs(packetDropped)
attr title "packet drops: not addressed to us, count"
scalar QosShowcase.ap.wlan[0].mac.dcf packetDropNotAddressedToUs:sum(packetBytes) 0
attr interpolationmode none
attr recordingmode sum(packetBytes)
attr source packetDropReasonIsNotAddressedToUs(packetDropped)
attr title "packet drops: not addressed to us, sum(packetBytes)"
scalar QosShowcase.ap.wlan[0].mac.dcf packetDropQueueOverflow:count 0
attr interpolationmode none
attr recordingmode count
attr source packetDropReasonIsQueueOverflow(packetDropped)
attr title "packet drops: queue overflow, count"
scalar QosShowcase.ap.wlan[0].mac.dcf packetDropQueueOverflow:sum(packetBytes) 0
attr interpolationmode none
attr recordingmode sum(packetBytes)
attr source packetDropReasonIsQueueOverflow(packetDropped)
attr title "packet drops: queue overflow, sum(packetBytes)"
scalar QosShowcase.ap.wlan[0].mac.dcf packetDropRetryLimitReached:count 0
attr interpolationmode none
attr recordingmode count
attr source packetDropReasonIsRetryLimitReached(packetDropped)
attr title "packet drops: retry limit reached, count"
scalar QosShowcase.ap.wlan[0].mac.dcf packetDropRetryLimitReached:sum(packetBytes) 0
attr interpolationmode none
attr recordingmode sum(packetBytes)
attr source packetDropReasonIsRetryLimitReached(packetDropped)
attr title "packet drops: retry limit reached, sum(packetBytes)"
scalar QosShowcase.ap.wlan[0].mac.dcf linkBroken:count 0
attr interpolationmode none
attr recordingmode count
attr title "link breaks, count"
scalar QosShowcase.ap.wlan[0].mac.dcf frameSequenceFinished:count 66
attr recordingmode count
attr title "finished frame sequences, count"
statistic QosShowcase.ap.wlan[0].mac.dcf frameSequenceDuration:histogram
field count 66
field mean 0.00016609010527273
field stddev 6.9666251142262e-05
field min 3.8e-05
field max 0.000225
field sum 0.010961946948
field sqrsum 2.1361410482215e-06
attr recordingmode histogram
attr source frameSequenceDuration(frameSequenceFinished)
attr title "frame sequence durations"
bin	-inf	0
bin	0	0
bin	5e-06	0
bin	1e-05	0
bin	1.5e-05	0
bin	2e-05	0
bin	2.5e-05	0
bin	3e-05	0
bin	3.5e-05	1
bin	4e-05	0
bin	4.5e-05	10
bin	5e-05	0
bin	5.5e-05	0
bin	6e-05	0
bin	6.5e-05	0
bin	7e-05	0
bin	7.5e-05	0
bin	8e-05	1
bin	8.5e-05	6
bin	9e-05	2
bin	9.5e-05	0
bin	0.0001	0
bin	0.000105	0
bin	0.00011	0
bin	0.000115	0
bin	0.00012	0
bin	0.000125	0
bin	0.00013	0
bin	0.000135	0
bin	0.00014	0
bin	0.000145	0
bin	0.00015	0
bin	0.000155	0
bin	0.00016	0
bin	0.000165	0
bin	0.00017	5
bin	0.000175	0
bin	0.00018	0
bin	0.000185	0
bin	0.00019	0
bin	0.000195	0
bin	0.0002	0
bin	0.000205	0
bin	0.00021	40
bin	0.000215	0
bin	0.00022	1
bin	0.000225	0
bin	0.00023	0
bin	0.000235	0
bin	0.00024	0
bin	0.000245	0
bin	0.00025	0
bin	0.000255	0
bin	0.00026	0
bin	0.000265	0
bin	0.00027	0
bin	0.000275	0
statistic QosShowcase.ap.wlan[0].mac.dcf frameSequenceNumPackets:histogram
field count 66
field mean 1.8333333333333
field stddev 0.37553380809941
field min 1
field max 2
field sum 121
field sqrsum 231
attr recordingmode histogram
attr source frameSequenceNumPackets(frameSequenceFinished)
attr title "frame sequences: number of packets"
bin	-inf	0
bin	0	0
bin	1	11
bin	2	55
bin	3	0
par QosShowcase.ap.wlan[0].mac.ds typename "\"inet.linklayer.ieee80211.mac.Ds\""
par QosShowcase.ap.wlan[0].mac.ds mibModule "\"QosShowcase.ap.wlan[0].mib\""
par QosShowcase.ap.wlan[0].mac.rx typename "\"inet.linklayer.ieee80211.mac.Rx\""
par QosShowcase.ap.wlan[0].mac.tx typename "\"inet.linklayer.ieee80211.mac.Tx\""
par QosShowcase.ap.wlan[0].mac.tx rxModule "\"^.rx\""
par QosShowcase.ap.wlan[0].mac typename "\"inet.linklayer.ieee80211.mac.Ieee80211Mac\""
par QosShowcase.ap.wlan[0].mac interfaceTableModule "\"QosShowcase.ap.interfaceTable\""
par QosShowcase.ap.wlan[0].mac mibModule "\"QosShowcase.ap.wlan[0].mib\""
par QosShowcase.ap.wlan[0].mac modeSet "\"g(mixed)\""
attr enum a,b,g(erp),g(mixed),n(mixed-2.4Ghz),p,ac
par QosShowcase.ap.wlan[0].mac fcsMode "\"declared\""
attr enum declared,computed
par QosShowcase.ap.wlan[0].mac initialRadioMode "\"receiver\""
attr enum off,sleep,receiver,transmitter,transceiver
par QosShowcase.ap.wlan[0].mac mtu 2304B
attr unit B
par QosShowcase.ap.wlan[0].mac qosStation false
scalar QosShowcase.ap.wlan[0].mac packetReceivedFromLower:count 118
attr interpolationmode none
attr recordingmode count
attr title "packets received from lower layer, count"
scalar QosShowcase.ap.wlan[0].mac packetReceivedFromLower:sum(packetBytes) 51428
attr interpolationmode none
attr recordingmode sum(packetBytes)
attr title "packets received from lower layer, sum(packetBytes)"
scalar QosShowcase.ap.wlan[0].mac packetSentToLower:count 129
attr interpolationmode none
attr recordingmode count
attr title "packets sent to lower layer, count"
scalar QosShowcase.ap.wlan[0].mac packetSentToLower:sum(packetBytes) 45700
attr interpolationmode none
attr recordingmode sum(packetBytes)
attr title "packets sent to lower layer, sum(packetBytes)"
scalar QosShowcase.ap.wlan[0].mac packetReceivedFromUpper:count 0
attr interpolationmode none
attr recordingmode count
attr title "packets received from upper layer, count"
scalar QosShowcase.ap.wlan[0].mac packetReceivedFromUpper:sum(packetBytes) 0
attr interpolationmode none
attr recordingmode sum(packetBytes)
attr title "packets received from upper layer, sum(packetBytes)"
scalar QosShowcase.ap.wlan[0].mac packetSentToUpper:count 1
attr interpolationmode none
attr recordingmode count
attr title "packets sent to upper layer, count"
scalar QosShowcase.ap.wlan[0].mac packetSentToUpper:sum(packetBytes) 36
attr interpolationmode none
attr recordingmode sum(packetBytes)
attr title "packets sent to upper layer, sum(packetBytes)"
scalar QosShowcase.ap.wlan[0].mac packetDrop:count 0
attr interpolationmode none
attr recordingmode count
attr source packetDropped
attr title "packet drops, count"
scalar QosShowcase.ap.wlan[0].mac packetDrop:sum(packetBytes) 0
attr interpolationmode none
attr recordingmode sum(packetBytes)
attr source packetDropped
attr title "packet drops, sum(packetBytes)"
scalar QosShowcase.ap.wlan[0].mac packetDropIncorrectlyReceived:count 0
attr interpolationmode none
attr recordingmode count
attr source packetDropReasonIsIncorrectlyReceived(packetDropped)
attr title "packet drops: incorrectly received, count"
scalar QosShowcase.ap.wlan[0].mac packetDropIncorrectlyReceived:sum(packetBytes) 0
attr interpolationmode none
attr recordingmode sum(packetBytes)
attr source packetDropReasonIsIncorrectlyReceived(packetDropped)
attr title "packet drops: incorrectly received, sum(packetBytes)"
scalar QosShowcase.ap.wlan[0].mac packetDropNotAddressedToUs:count 0
attr interpolationmode none
attr recordingmode count
attr source packetDropReasonIsNotAddressedToUs(packetDropped)
attr title "packet drops: not addressed to us, count"
scalar QosShowcase.ap.wlan[0].mac packetDropNotAddressedToUs:sum(packetBytes) 0
attr interpolationmode none
attr recordingmode sum(packetBytes)
attr source packetDropReasonIsNotAddressedToUs(packetDropped)
attr title "packet drops: not addressed to us, sum(packetBytes)"
scalar QosShowcase.ap.wlan[0].mac packetDropQueueOverflow:count 0
attr interpolationmode none
attr recordingmode count
attr source packetDropReasonIsQueueOverflow(packetDropped)
attr title "packet drops: queue overflow, count"
scalar QosShowcase.ap.wlan[0].mac packetDropQueueOverflow:sum(packetBytes) 0
attr interpolationmode none
attr recordingmode sum(packetBytes)
attr source packetDropReasonIsQueueOverflow(packetDropped)
attr title "packet drops: queue overflow, sum(packetBytes)"
scalar QosShowcase.ap.wlan[0].mac packetDropRetryLimitReached:count 0
attr interpolationmode none
attr recordingmode count
attr source packetDropReasonIsRetryLimitReached(packetDropped)
attr title "packet drops: retry limit reached, count"
scalar QosShowcase.ap.wlan[0].mac packetDropRetryLimitReached:sum(packetBytes) 0
attr interpolationmode none
attr recordingmode sum(packetBytes)
attr source packetDropReasonIsRetryLimitReached(packetDropped)
attr title "packet drops: retry limit reached, sum(packetBytes)"
scalar QosShowcase.ap.wlan[0].mac packetDropDuplicateDetected:count 0
attr interpolationmode none
attr recordingmode count
attr source packetDropReasonIsDuplicateDetected(packetDropped)
attr title "packet drops: duplicate detected, count"
scalar QosShowcase.ap.wlan[0].mac packetDropDuplicateDetected:sum(packetBytes) 0
attr interpolationmode none
attr recordingmode sum(packetBytes)
attr source packetDropReasonIsDuplicateDetected(packetDropped)
attr title "packet drops: duplicate detected, sum(packetBytes)"
scalar QosShowcase.ap.wlan[0].mac packetDropOther:count 0
attr interpolationmode none
attr recordingmode count
attr source packetDropReasonIsOther(packetDropped)
attr title "packet drops: other, count"
scalar QosShowcase.ap.wlan[0].mac packetDropOther:sum(packetBytes) 0
attr interpolationmode none
attr recordingmode sum(packetBytes)
attr source packetDropReasonIsOther(packetDropped)
attr title "packet drops: other, sum(packetBytes)"
scalar QosShowcase.ap.wlan[0].mac linkBroken:count 0
attr interpolationmode none
attr recordingmode count
attr title "link breaks, count"
par QosShowcase.ap.wlan[0].radio.antenna typename "\"inet.physicallayer.wireless.common.antenna.IsotropicAntenna\""
par QosShowcase.ap.wlan[0].radio.antenna mobilityModule "\"^.^.^.mobility\""
par QosShowcase.ap.wlan[0].radio.antenna numAntennas 1
par QosShowcase.ap.wlan[0].radio.transmitter.analogModel typename "\"inet.physicallayer.wireless.common.analogmodel.scalar.ScalarTransmitterAnalogModel\""
par QosShowcase.ap.wlan[0].radio.transmitter.analogModel power 0.02W
attr unit W
par QosShowcase.ap.wlan[0].radio.transmitter.analogModel centerFrequency "nan Hz"
attr unit Hz
par QosShowcase.ap.wlan[0].radio.transmitter.analogModel bandwidth "nan Hz"
attr unit Hz
par QosShowcase.ap.wlan[0].radio.transmitter typename "\"inet.physicallayer.wireless.ieee80211.packetlevel.Ieee80211Transmitter\""
par QosShowcase.ap.wlan[0].radio.transmitter signalAnalogRepresentation "\"scalar\""
attr enum unitDisk,scalar,dimensional
par QosShowcase.ap.wlan[0].radio.transmitter preambleDuration -1s
attr unit s
par QosShowcase.ap.wlan[0].radio.transmitter headerLength 192b
attr unit b
par QosShowcase.ap.wlan[0].radio.transmitter bitrate 5.4e+07bps
attr unit bps
par QosShowcase.ap.wlan[0].radio.transmitter power 0.02W
attr unit W
par QosShowcase.ap.wlan[0].radio.transmitter centerFrequency 2.412e+09Hz
attr unit Hz
par QosShowcase.ap.wlan[0].radio.transmitter bandwidth "nan Hz"
attr unit Hz
par QosShowcase.ap.wlan[0].radio.transmitter codeRate 1
par QosShowcase.ap.wlan[0].radio.transmitter modulation "\"BPSK\""
par QosShowcase.ap.wlan[0].radio.transmitter opMode "\"g(mixed)\""
attr enum a,b,g(erp),g(mixed),n(mixed-2.4Ghz),p,ac
par QosShowcase.ap.wlan[0].radio.transmitter bandName "\"2.4 GHz\""
attr enum "2.4 GHz,5 GHz,5 GHz (20 MHz),5 GHz (40 MHz),5 GHz (80 MHz),5 GHz (160 MHz),5.9 GHz"
par QosShowcase.ap.wlan[0].radio.transmitter channelNumber 0
par QosShowcase.ap.wlan[0].radio.receiver.analogModel typename "\"inet.physicallayer.wireless.common.analogmodel.scalar.ScalarReceiverAnalogModel\""
par QosShowcase.ap.wlan[0].radio.receiver.analogModel defaultCenterFrequency 2.412e+09Hz
attr unit Hz
par QosShowcase.ap.wlan[0].radio.receiver.analogModel defaultBandwidth 2.2e+07Hz
attr unit Hz
par QosShowcase.ap.wlan[0].radio.receiver.analogModel defaultSensitivity -85dBm
attr unit dBm
par QosShowcase.ap.wlan[0].radio.receiver.errorModel typename "\"inet.physicallayer.wireless.ieee80211.packetlevel.errormodel.Ieee80211NistErrorModel\""
par QosShowcase.ap.wlan[0].radio.receiver.errorModel corruptionMode "\"packet\""
attr enum packet,chunk,byte,bit
par QosShowcase.ap.wlan[0].radio.receiver.errorModel snirMode "\"min\""
attr enum min,mean
par QosShowcase.ap.wlan[0].radio.receiver.errorModel snirOffset 0dB
attr unit dB
par QosShowcase.ap.wlan[0].radio.receiver typename "\"inet.physicallayer.wireless.ieee80211.packetlevel.Ieee80211Receiver\""
par QosShowcase.ap.wlan[0].radio.receiver ignoreInterference false
par QosShowcase.ap.wlan[0].radio.receiver signalAnalogRepresentation "\"scalar\""
attr enum unitDisk,scalar,dimensional
par QosShowcase.ap.wlan[0].radio.receiver snirThreshold 4dB
attr unit dB
par QosShowcase.ap.wlan[0].radio.receiver snirThresholdMode "\"min\""
attr enum min,mean
par QosShowcase.ap.wlan[0].radio.receiver energyDetection -85dBm
attr unit dBm
par QosShowcase.ap.wlan[0].radio.receiver sensitivity -85dBm
attr unit dBm
par QosShowcase.ap.wlan[0].radio.receiver centerFrequency 2.412e+09Hz
attr unit Hz
par QosShowcase.ap.wlan[0].radio.receiver bandwidth 2.2e+07Hz
attr unit Hz
par QosShowcase.ap.wlan[0].radio.receiver modulation "\"BPSK\""
par QosShowcase.ap.wlan[0].radio.receiver opMode "\"g(mixed)\""
attr enum a,b,g(erp),g(mixed),n(mixed-2.4Ghz),p,ac
par QosShowcase.ap.wlan[0].radio.receiver bandName "\"2.4 GHz\""
attr enum "2.4 GHz,5 GHz,5 GHz (20 MHz),5 GHz (40 MHz),5 GHz (80 MHz),5 GHz (160 MHz),5.9 GHz"
par QosShowcase.ap.wlan[0].radio.receiver channelNumber 0
par QosShowcase.ap.wlan[0].radio typename "\"inet.physicallayer.wireless.ieee80211.packetlevel.Ieee80211Radio\""
par QosShowcase.ap.wlan[0].radio radioMediumModule "\"radioMedium\""
par QosShowcase.ap.wlan[0].radio energySourceModule "\"\""
par QosShowcase.ap.wlan[0].radio initialRadioMode "\"off\""
attr enum off,sleep,receiver,transmitter,transceiver
par QosShowcase.ap.wlan[0].radio switchingTimes "\"ms 0 0 0 0 0 0 0 0 0 0 0 0 0 0 0 0 0 0 0 0 0 0 0 0 0\""
par QosShowcase.ap.wlan[0].radio sendRawBytes false
par QosShowcase.ap.wlan[0].radio separateTransmissionParts false
par QosShowcase.ap.wlan[0].radio separateReceptionParts false
par QosShowcase.ap.wlan[0].radio displayCommunicationRange false
par QosShowcase.ap.wlan[0].radio displayInterferenceRange false
par QosShowcase.ap.wlan[0].radio signalAnalogRepresentation "\"scalar\""
attr enum unitDisk,scalar,dimensional
par QosShowcase.ap.wlan[0].radio centerFrequency 2.412e+09Hz
attr unit Hz
par QosShowcase.ap.wlan[0].radio bandwidth "nan Hz"
attr unit Hz
par QosShowcase.ap.wlan[0].radio opMode "\"g(mixed)\""
attr enum a,b,g(erp),g(mixed),n(mixed-2.4Ghz),p,ac
par QosShowcase.ap.wlan[0].radio bandName "\"2.4 GHz\""
attr enum "2.4 GHz,5 GHz,5 GHz (20 MHz),5 GHz (40 MHz),5 GHz (80 MHz),5 GHz (160 MHz),5.9 GHz"
par QosShowcase.ap.wlan[0].radio channelNumber 0
par QosShowcase.ap.wlan[0].radio crcMode "\"declared\""
attr enum declared,computed
statistic QosShowcase.ap.wlan[0].radio minSnir:histogram
field count 118
field mean 9782.8877605193
field stddev 0
field min 9782.8877605193
field max 9782.8877605193
field sum 1154380.7557413
field sqrsum 11293177366.32
attr recordingmode histogram
attr source minimumSnir(packetSentToUpper)
attr title "Min SNIR"
bin	-inf	0
bin	9782.38	0
bin	9782.4	0
bin	9782.42	0
bin	9782.44	0
bin	9782.46	0
bin	9782.48	0
bin	9782.5	0
bin	9782.52	0
bin	9782.54	0
bin	9782.56	0
bin	9782.58	0
bin	9782.6	0
bin	9782.62	0
bin	9782.64	0
bin	9782.66	0
bin	9782.68	0
bin	9782.7	0
bin	9782.72	0
bin	9782.74	0
bin	9782.76	0
bin	9782.78	0
bin	9782.8	0
bin	9782.82	0
bin	9782.84	0
bin	9782.86	0
bin	9782.88	118
bin	9782.9	0
bin	9782.92	0
bin	9782.94	0
bin	9782.96	0
bin	9782.98	0
bin	9783	0
bin	9783.02	0
bin	9783.04	0
bin	9783.06	0
bin	9783.08	0
bin	9783.1	0
bin	9783.12	0
bin	9783.14	0
bin	9783.16	0
bin	9783.18	0
bin	9783.2	0
bin	9783.22	0
bin	9783.24	0
bin	9783.26	0
bin	9783.28	0
bin	9783.3	0
bin	9783.32	0
bin	9783.34	0
bin	9783.36	0
bin	9783.38	0
bin	9783.4	0
statistic QosShowcase.ap.wlan[0].radio packetErrorRate:histogram
field count 118
field mean 0
field stddev 0
field min 0
field max 0
field sum 0
field sqrsum 0
attr recordingmode histogram
attr source packetErrorRate(packetSentToUpper)
attr title "Packet error rate"
bin	-inf	0
bin	-0.5	0
bin	-0.48	0
bin	-0.46	0
bin	-0.44	0
bin	-0.42	0
bin	-0.4	0
bin	-0.38	0
bin	-0.36	0
bin	-0.34	0
bin	-0.32	0
bin	-0.3	0
bin	-0.28	0
bin	-0.26	0
bin	-0.24	0
bin	-0.22	0
bin	-0.2	0
bin	-0.18	0
bin	-0.16	0
bin	-0.14	0
bin	-0.12	0
bin	-0.1	0
bin	-0.08	0
bin	-0.06	0
bin	-0.04	0
bin	-0.02	0
bin	0	118
bin	0.02	0
bin	0.04	0
bin	0.06	0
bin	0.08	0
bin	0.1	0
bin	0.12	0
bin	0.14	0
bin	0.16	0
bin	0.18	0
bin	0.2	0
bin	0.22	0
bin	0.24	0
bin	0.26	0
bin	0.28	0
bin	0.3	0
bin	0.32	0
bin	0.34	0
bin	0.36	0
bin	0.38	0
bin	0.4	0
bin	0.42	0
bin	0.44	0
bin	0.46	0
bin	0.48	0
bin	0.5	0
statistic QosShowcase.ap.wlan[0].radio bitErrorRate:histogram
field count 0
field mean nan
field stddev nan
field min nan
field max nan
field sum 0
field sqrsum 0
attr recordingmode histogram
attr source bitErrorRate(packetSentToUpper)
attr title "Bit error rate"
bin	-inf	0
bin	0	0
bin	1	0
statistic QosShowcase.ap.wlan[0].radio symbolErrorRate:histogram
field count 0
field mean nan
field stddev nan
field min nan
field max nan
field sum 0
field sqrsum 0
attr recordingmode histogram
attr source symbolErrorRate(packetSentToUpper)
attr title "Symbol error rate"
bin	-inf	0
bin	0	0
bin	1	0
scalar QosShowcase.ap.wlan[0].radio transmissionState:count 514
attr enum UNDEFINED,IDLE,TRANSMITTING
attr interpolationmode sample-hold
attr recordingmode count
attr source transmissionStateChanged
attr title "Radio transmission state, count"
attr type enum
scalar QosShowcase.ap.wlan[0].radio receptionState:count 495
attr enum UNDEFINED,IDLE,BUSY,RECEIVING
attr interpolationmode sample-hold
attr recordingmode count
attr source receptionStateChanged
attr title "Radio reception state, count"
attr type enum
scalar QosShowcase.ap.wlan[0].radio radioMode:count 260
attr enum OFF,SLEEP,RECEIVER,TRANSMITTER,TRANSCEIVER,SWITCHING
attr interpolationmode sample-hold
attr recordingmode count
attr source radioModeChanged
attr title "Radio mode, count"
attr type enum
statistic QosShowcase.ap.wlan[0].radio radioChannel:histogram
field count 1
field mean 0
field stddev nan
field min 0
field max 0
field sum 0
field sqrsum 0
attr interpolationmode sample-hold
attr recordingmode histogram
attr source radioChannelChanged
attr title "Radio channel"
bin	-inf	0
bin	-0.5	0
bin	-0.48	0
bin	-0.46	0
bin	-0.44	0
bin	-0.42	0
bin	-0.4	0
bin	-0.38	0
bin	-0.36	0
bin	-0.34	0
bin	-0.32	0
bin	-0.3	0
bin	-0.28	0
bin	-0.26	0
bin	-0.24	0
bin	-0.22	0
bin	-0.2	0
bin	-0.18	0
bin	-0.16	0
bin	-0.14	0
bin	-0.12	0
bin	-0.1	0
bin	-0.08	0
bin	-0.06	0
bin	-0.04	0
bin	-0.02	0
bin	0	1
bin	0.02	0
bin	0.04	0
bin	0.06	0
bin	0.08	0
bin	0.1	0
bin	0.12	0
bin	0.14	0
bin	0.16	0
bin	0.18	0
bin	0.2	0
bin	0.22	0
bin	0.24	0
bin	0.26	0
bin	0.28	0
bin	0.3	0
bin	0.32	0
bin	0.34	0
bin	0.36	0
bin	0.38	0
bin	0.4	0
bin	0.42	0
bin	0.44	0
bin	0.46	0
bin	0.48	0
bin	0.5	0
par QosShowcase.ap.wlan[0] typename "\"inet.linklayer.ieee80211.Ieee80211Interface\""
par QosShowcase.ap.wlan[0] displayStringTextFormat "\"%a (%i)\\n%m\""
par QosShowcase.ap.wlan[0] recordPcap false
par QosShowcase.ap.wlan[0] numPcapRecorders 0
par QosShowcase.ap.wlan[0] interfaceTableModule "\"QosShowcase.ap.interfaceTable\""
par QosShowcase.ap.wlan[0] energySourceModule "\"\""
par QosShowcase.ap.wlan[0] opMode "\"g(mixed)\""
attr enum a,b,g(erp),g(mixed),n(mixed-2.4Ghz),p,ac
par QosShowcase.ap.wlan[0] address "\"0A-AA-00-00-00-01\""
attr mutable ""
par QosShowcase.ap.wlan[0] protocol "\"ethernetmac\""
par QosShowcase.ap.wlan[0] bitrate 5.4e+07bps
attr unit bps
scalar QosShowcase.ap.wlan[0] packetDropInterfaceDown:count 0
attr interpolationmode none
attr recordingmode count
attr source packetDropReasonIsInterfaceDown(packetDropped)
attr title "packet drops: interface down, count"
scalar QosShowcase.ap.wlan[0] packetDropInterfaceDown:sum(packetBytes) 0
attr interpolationmode none
attr recordingmode sum(packetBytes)
attr source packetDropReasonIsInterfaceDown(packetDropped)
attr title "packet drops: interface down, sum(packetBytes)"
scalar QosShowcase.ap.wlan[0] packetDropNoCarrier:count 0
attr interpolationmode none
attr recordingmode count
attr source packetDropReasonIsNoCarrier(packetDropped)
attr title "packet drops: no carrier, count"
scalar QosShowcase.ap.wlan[0] packetDropNoCarrier:sum(packetBytes) 0
attr interpolationmode none
attr recordingmode sum(packetBytes)
attr source packetDropReasonIsNoCarrier(packetDropped)
attr title "packet drops: no carrier, sum(packetBytes)"
par QosShowcase.ap typename "\"inet.node.wireless.AccessPoint\""
par QosShowcase.ap numWlanInterfaces 1
par QosShowcase.ap hasStatus false
par QosShowcase.ap fcsMode "\"declared\""
attr enum declared,computed
par QosShowcase.server.radioIn[0].channel typename "\"ned.IdealChannel\""
par QosShowcase.server.mobility typename "\"inet.mobility.static.StationaryMobility\""
par QosShowcase.server.mobility subjectModule "\"^\""
par QosShowcase.server.mobility coordinateSystemModule "\"\""
par QosShowcase.server.mobility displayStringTextFormat "\"p: %p\\nv: %v\""
attr mutable ""
par QosShowcase.server.mobility updateDisplayString true
par QosShowcase.server.mobility constraintAreaMinX "-inf m"
attr unit m
par QosShowcase.server.mobility constraintAreaMinY "-inf m"
attr unit m
par QosShowcase.server.mobility constraintAreaMinZ "-inf m"
attr unit m
par QosShowcase.server.mobility constraintAreaMaxX "inf m"
attr unit m
par QosShowcase.server.mobility constraintAreaMaxY "inf m"
attr unit m
par QosShowcase.server.mobility constraintAreaMaxZ "inf m"
attr unit m
par QosShowcase.server.mobility initialX "nan m"
attr unit m
par QosShowcase.server.mobility initialY "nan m"
attr unit m
par QosShowcase.server.mobility initialZ 0m
attr unit m
par QosShowcase.server.mobility initialLatitude "nan deg"
attr unit deg
par QosShowcase.server.mobility initialLongitude "nan deg"
attr unit deg
par QosShowcase.server.mobility initialAltitude 0m
attr unit m
par QosShowcase.server.mobility initialHeading 0deg
attr unit deg
par QosShowcase.server.mobility initialElevation 0deg
attr unit deg
par QosShowcase.server.mobility initialBank 0deg
attr unit deg
par QosShowcase.server.mobility initFromDisplayString true
par QosShowcase.server.mobility updateFromDisplayString true
par QosShowcase.server.interfaceTable typename "\"inet.networklayer.common.InterfaceTable\""
par QosShowcase.server.interfaceTable displayAddresses false
par QosShowcase.server.cb typename "\"inet.common.MessageDispatcher\""
par QosShowcase.server.cb displayStringTextFormat "\"processed %p pk (%l)\""
par QosShowcase.server.cb interfaceTableModule "\"QosShowcase.server.interfaceTable\""
par QosShowcase.server.cb forwardServiceRegistration true
par QosShowcase.server.cb forwardProtocolRegistration true
par QosShowcase.server.cb interfaceMapping {}
par QosShowcase.server.cb serviceMapping {}
par QosShowcase.server.cb protocolMapping {}
par QosShowcase.server.bl typename "\"inet.common.MessageDispatcher\""
par QosShowcase.server.bl displayStringTextFormat "\"processed %p pk (%l)\""
par QosShowcase.server.bl interfaceTableModule "\"QosShowcase.server.interfaceTable\""
par QosShowcase.server.bl forwardServiceRegistration true
par QosShowcase.server.bl forwardProtocolRegistration true
par QosShowcase.server.bl interfaceMapping {}
par QosShowcase.server.bl serviceMapping {}
par QosShowcase.server.bl protocolMapping {}
par QosShowcase.server.li typename "\"inet.common.MessageDispatcher\""
par QosShowcase.server.li displayStringTextFormat "\"processed %p pk (%l)\""
par QosShowcase.server.li interfaceTableModule "\"QosShowcase.server.interfaceTable\""
par QosShowcase.server.li forwardServiceRegistration true
par QosShowcase.server.li forwardProtocolRegistration true
par QosShowcase.server.li interfaceMapping {}
par QosShowcase.server.li serviceMapping {}
par QosShowcase.server.li protocolMapping {}
par QosShowcase.server.lo[0].upperLayerIn.channel typename "\"ned.IdealChannel\""
par QosShowcase.server.lo[0].lo.upperLayerOut.channel typename "\"ned.IdealChannel\""
par QosShowcase.server.lo[0].lo typename "\"inet.linklayer.loopback.Loopback\""
par QosShowcase.server.lo[0].lo interfaceTableModule "\"QosShowcase.server.interfaceTable\""
par QosShowcase.server.lo[0].lo mtu 4470B
attr unit B
scalar QosShowcase.server.lo[0].lo rcvdPkFromHl:count 0
attr interpolationmode none
attr recordingmode count
attr source packetReceivedFromUpper
attr title "packets received from higher layer, count"
scalar QosShowcase.server.lo[0].lo rcvdPkFromHl:sum(packetBytes) 0
attr interpolationmode none
attr recordingmode sum(packetBytes)
attr source packetReceivedFromUpper
attr title "packets received from higher layer, sum(packetBytes)"
scalar QosShowcase.server.lo[0].lo passedUpPk:count 0
attr interpolationmode none
attr recordingmode count
attr source packetSentToUpper
attr title "packets passed to higher layer, count"
scalar QosShowcase.server.lo[0].lo passedUpPk:sum(packetBytes) 0
attr interpolationmode none
attr recordingmode sum(packetBytes)
attr source packetSentToUpper
attr title "packets passed to higher layer, sum(packetBytes)"
par QosShowcase.server.lo[0] typename "\"inet.linklayer.loopback.LoopbackInterface\""
par QosShowcase.server.lo[0] displayStringTextFormat "\"%a (%i)\\n%m\""
par QosShowcase.server.lo[0] recordPcap false
par QosShowcase.server.lo[0] numPcapRecorders 0
par QosShowcase.server.lo[0] interfaceTableModule "\"QosShowcase.server.interfaceTable\""
scalar QosShowcase.server.lo[0] packetDropInterfaceDown:count 0
attr interpolationmode none
attr recordingmode count
attr source packetDropReasonIsInterfaceDown(packetDropped)
attr title "packet drops: interface down, count"
scalar QosShowcase.server.lo[0] packetDropInterfaceDown:sum(packetBytes) 0
attr interpolationmode none
attr recordingmode sum(packetBytes)
attr source packetDropReasonIsInterfaceDown(packetDropped)
attr title "packet drops: interface down, sum(packetBytes)"
scalar QosShowcase.server.lo[0] packetDropNoCarrier:count 0
attr interpolationmode none
attr recordingmode count
attr source packetDropReasonIsNoCarrier(packetDropped)
attr title "packet drops: no carrier, count"
scalar QosShowcase.server.lo[0] packetDropNoCarrier:sum(packetBytes) 0
attr interpolationmode none
attr recordingmode sum(packetBytes)
attr source packetDropReasonIsNoCarrier(packetDropped)
attr title "packet drops: no carrier, sum(packetBytes)"
par QosShowcase.server.wlan[0].radioIn.channel typename "\"ned.IdealChannel\""
par QosShowcase.server.wlan[0].llc.upperLayerOut.channel typename "\"ned.IdealChannel\""
par QosShowcase.server.wlan[0].upperLayerIn.channel typename "\"ned.IdealChannel\""
par QosShowcase.server.wlan[0].mib typename "\"inet.linklayer.ieee80211.mib.Ieee80211Mib\""
par QosShowcase.server.wlan[0].llc typename "\"inet.linklayer.ieee80211.llc.Ieee80211LlcLpd\""
par QosShowcase.server.wlan[0].llc registerProtocol false
par QosShowcase.server.wlan[0].agent typename "\"inet.linklayer.ieee80211.mgmt.Ieee80211AgentSta\""
par QosShowcase.server.wlan[0].agent interfaceTableModule "\"QosShowcase.server.interfaceTable\""
par QosShowcase.server.wlan[0].agent mibModule "\"QosShowcase.server.wlan[0].mib\""
par QosShowcase.server.wlan[0].agent activeScan true
par QosShowcase.server.wlan[0].agent channelsToScan "\"\""
par QosShowcase.server.wlan[0].agent probeDelay 0.1s
attr unit s
par QosShowcase.server.wlan[0].agent minChannelTime 0.15s
attr unit s
par QosShowcase.server.wlan[0].agent maxChannelTime 0.3s
attr unit s
par QosShowcase.server.wlan[0].agent authenticationTimeout 5s
attr unit s
par QosShowcase.server.wlan[0].agent associationTimeout 5s
attr unit s
par QosShowcase.server.wlan[0].agent startingTime -1s
attr unit s
par QosShowcase.server.wlan[0].agent defaultSsid "\"SSID\""
scalar QosShowcase.server.wlan[0].agent dropConfirm:count 0
attr recordingmode count
attr title "dropped confirms, count"
scalar QosShowcase.server.wlan[0].agent acceptConfirm:count 3
attr recordingmode count
attr title "accepted confirms, count"
scalar QosShowcase.server.wlan[0].agent sentRequest:count 3
attr recordingmode count
attr title "sent requests, count"
par QosShowcase.server.wlan[0].mgmt typename "\"inet.linklayer.ieee80211.mgmt.Ieee80211MgmtSta\""
par QosShowcase.server.wlan[0].mgmt interfaceTableModule "\"QosShowcase.server.interfaceTable\""
par QosShowcase.server.wlan[0].mgmt numChannels 1
par QosShowcase.server.wlan[0].mgmt mibModule "\"QosShowcase.server.wlan[0].mib\""
par QosShowcase.server.wlan[0].mgmt macModule "\"QosShowcase.server.wlan[0].mac\""
par QosShowcase.server.wlan[0].mac.dcf.channelAccess.pendingQueue typename "\"inet.linklayer.ieee80211.mac.queue.PendingQueue\""
par QosShowcase.server.wlan[0].mac.dcf.channelAccess.pendingQueue displayStringTextFormat "\"contains %p pk (%l) pushed %u\\npulled %o removed %r dropped %d\""
par QosShowcase.server.wlan[0].mac.dcf.channelAccess.pendingQueue packetCapacity 100
par QosShowcase.server.wlan[0].mac.dcf.channelAccess.pendingQueue dataCapacity -1b
attr unit b
par QosShowcase.server.wlan[0].mac.dcf.channelAccess.pendingQueue dropperClass "\"inet::queueing::PacketAtCollectionEndDropper\""
par QosShowcase.server.wlan[0].mac.dcf.channelAccess.pendingQueue comparatorClass "\"inet::ieee80211::MgmtOverDataComparator\""
par QosShowcase.server.wlan[0].mac.dcf.channelAccess.pendingQueue bufferModule "\"\""
scalar QosShowcase.server.wlan[0].mac.dcf.channelAccess.pendingQueue queueLength:last 0
attr autoWarmupFilter false
attr interpolationmode sample-hold
attr recordingmode last
attr source "warmup(atomic(constant0(packetPushEnded) + count(packetPushStarted) - count(packetPulled) - count(packetRemoved) - count(packetDropped)))"
attr title "queue length, last"
attr unit pk
scalar QosShowcase.server.wlan[0].mac.dcf.channelAccess.pendingQueue queueLength:max 1
attr autoWarmupFilter false
attr interpolationmode sample-hold
attr recordingmode max
attr source "warmup(atomic(constant0(packetPushEnded) + count(packetPushStarted) - count(packetPulled) - count(packetRemoved) - count(packetDropped)))"
attr title "queue length, max"
attr unit pk
scalar QosShowcase.server.wlan[0].mac.dcf.channelAccess.pendingQueue queueLength:timeavg 0.0015118716277648
attr autoWarmupFilter false
attr interpolationmode sample-hold
attr recordingmode timeavg
attr source "warmup(atomic(constant0(packetPushEnded) + count(packetPushStarted) - count(packetPulled) - count(packetRemoved) - count(packetDropped)))"
attr title "queue length, timeavg"
attr unit pk
scalar QosShowcase.server.wlan[0].mac.dcf.channelAccess.pendingQueue queueBitLength:last 0
attr autoWarmupFilter false
attr interpolationmode sample-hold
attr recordingmode last
attr source "warmup(atomic(constant0(packetPushEnded) + sum(packetLength(packetPushStarted)) - sum(packetLength(packetPulled)) - sum(packetLength(packetRemoved)) - sum(packetLength(packetDropped))))"
attr title "queue bit length, last"
attr unit b
scalar QosShowcase.server.wlan[0].mac.dcf.channelAccess.pendingQueue queueBitLength:max 512
attr autoWarmupFilter false
attr interpolationmode sample-hold
attr recordingmode max
attr source "warmup(atomic(constant0(packetPushEnded) + sum(packetLength(packetPushStarted)) - sum(packetLength(packetPulled)) - sum(packetLength(packetRemoved)) - sum(packetLength(packetDropped))))"
attr title "queue bit length, max"
attr unit b
scalar QosShowcase.server.wlan[0].mac.dcf.channelAccess.pendingQueue queueBitLength:timeavg 0.57163693788947
attr autoWarmupFilter false
attr interpolationmode sample-hold
attr recordingmode timeavg
attr source "warmup(atomic(constant0(packetPushEnded) + sum(packetLength(packetPushStarted)) - sum(packetLength(packetPulled)) - sum(packetLength(packetRemoved)) - sum(packetLength(packetDropped))))"
attr title "queue bit length, timeavg"
attr unit b
statistic QosShowcase.server.wlan[0].mac.dcf.channelAccess.pendingQueue queueingTime:histogram
field count 5
field mean 0.0003156
field stddev 0.00030261989359591
field min 0
field max 0.00067
field sum 0.001578
field sqrsum 8.64332e-07
attr interpolationmode none
attr recordingmode histogram
attr source queueingTime(packetPulled)
attr title "queueing times"
attr unit s
bin	-inf	0
bin	0	2
bin	1e-05	0
bin	2e-05	0
bin	3e-05	0
bin	4e-05	0
bin	5e-05	0
bin	6e-05	0
bin	7e-05	0
bin	8e-05	0
bin	9e-05	0
bin	0.0001	0
bin	0.00011	0
bin	0.00012	0
bin	0.00013	0
bin	0.00014	0
bin	0.00015	0
bin	0.00016	0
bin	0.00017	0
bin	0.00018	0
bin	0.00019	0
bin	0.0002	0
bin	0.00021	0
bin	0.00022	0
bin	0.00023	0
bin	0.00024	0
bin	0.00025	0
bin	0.00026	0
bin	0.00027	0
bin	0.00028	0
bin	0.00029	0
bin	0.0003	0
bin	0.00031	0
bin	0.00032	0
bin	0.00033	0
bin	0.00034	0
bin	0.00035	0
bin	0.00036	0
bin	0.00037	0
bin	0.00038	0
bin	0.00039	0
bin	0.0004	0
bin	0.00041	1
bin	0.00042	0
bin	0.00043	0
bin	0.00044	0
bin	0.00045	0
bin	0.00046	0
bin	0.00047	0
bin	0.00048	0
bin	0.00049	1
bin	0.0005	0
bin	0.00051	0
bin	0.00052	0
bin	0.00053	0
bin	0.00054	0
bin	0.00055	0
bin	0.00056	0
bin	0.00057	0
bin	0.00058	0
bin	0.00059	0
bin	0.0006	0
bin	0.00061	0
bin	0.00062	0
bin	0.00063	0
bin	0.00064	0
bin	0.00065	0
bin	0.00066	0
bin	0.00067	1
bin	0.00068	0
bin	0.00069	0
bin	0.0007	0
bin	0.00071	0
bin	0.00072	0
bin	0.00073	0
bin	0.00074	0
bin	0.00075	0
bin	0.00076	0
bin	0.00077	0
bin	0.00078	0
bin	0.00079	0
bin	0.0008	0
bin	0.00081	0
bin	0.00082	0
bin	0.00083	0
bin	0.00084	0
scalar QosShowcase.server.wlan[0].mac.dcf.channelAccess.pendingQueue outgoingPackets:count 5
attr recordingmode count
attr source packetPulled
attr title "outgoing packets, count"
attr unit pk
scalar QosShowcase.server.wlan[0].mac.dcf.channelAccess.pendingQueue outgoingPacketLengths:sum 1664
attr interpolationmode none
attr recordingmode sum
attr source packetLength(packetPulled)
attr title "outgoing packet lengths, sum"
attr unit b
statistic QosShowcase.server.wlan[0].mac.dcf.channelAccess.pendingQueue outgoingPacketLengths:histogram
field count 5
field mean 332.8
field stddev 102.07448260951
field min 272
field max 512
field sum 1664
field sqrsum 595456
attr interpolationmode none
attr recordingmode histogram
attr source packetLength(packetPulled)
attr title "outgoing packet lengths"
attr unit b
bin	-inf	0
bin	210	0
bin	215	0
bin	220	0
bin	225	0
bin	230	0
bin	235	0
bin	240	0
bin	245	0
bin	250	0
bin	255	0
bin	260	0
bin	265	0
bin	270	2
bin	275	0
bin	280	0
bin	285	1
bin	290	0
bin	295	0
bin	300	0
bin	305	0
bin	310	0
bin	315	0
bin	320	1
bin	325	0
bin	330	0
bin	335	0
bin	340	0
bin	345	0
bin	350	0
bin	355	0
bin	360	0
bin	365	0
bin	370	0
bin	375	0
bin	380	0
bin	385	0
bin	390	0
bin	395	0
bin	400	0
bin	405	0
bin	410	0
bin	415	0
bin	420	0
bin	425	0
bin	430	0
bin	435	0
bin	440	0
bin	445	0
bin	450	0
bin	455	0
bin	460	0
bin	465	0
bin	470	0
bin	475	0
bin	480	0
bin	485	0
bin	490	0
bin	495	0
bin	500	0
bin	505	0
bin	510	1
bin	515	0
bin	520	0
bin	525	0
bin	530	0
bin	535	0
bin	540	0
bin	545	0
bin	550	0
bin	555	0
bin	560	0
bin	565	0
bin	570	0
bin	575	0
statistic QosShowcase.server.wlan[0].mac.dcf.channelAccess.pendingQueue flowQueueingTime:histogram
field count 0
field mean nan
field stddev nan
field min nan
field max nan
field sum 0
field sqrsum 0
attr interpolationmode none
attr recordingmode histogram
attr source queueingTime(demuxFlow(packetPulled))
attr title "flow queueing times"
attr unit s
bin	-inf	0
bin	0	0
bin	1	0
scalar QosShowcase.server.wlan[0].mac.dcf.channelAccess.pendingQueue incomingPackets:count 5
attr recordingmode count
attr source packetPushStarted
attr title "incoming packets, count"
attr unit pk
scalar QosShowcase.server.wlan[0].mac.dcf.channelAccess.pendingQueue incomingPacketLengths:sum 1664
attr interpolationmode none
attr recordingmode sum
attr source packetLength(packetPushStarted)
attr title "incoming packet lengths, sum"
attr unit b
statistic QosShowcase.server.wlan[0].mac.dcf.channelAccess.pendingQueue incomingPacketLengths:histogram
field count 5
field mean 332.8
field stddev 102.07448260951
field min 272
field max 512
field sum 1664
field sqrsum 595456
attr interpolationmode none
attr recordingmode histogram
attr source packetLength(packetPushStarted)
attr title "incoming packet lengths"
attr unit b
bin	-inf	0
bin	210	0
bin	215	0
bin	220	0
bin	225	0
bin	230	0
bin	235	0
bin	240	0
bin	245	0
bin	250	0
bin	255	0
bin	260	0
bin	265	0
bin	270	2
bin	275	0
bin	280	0
bin	285	1
bin	290	0
bin	295	0
bin	300	0
bin	305	0
bin	310	0
bin	315	0
bin	320	1
bin	325	0
bin	330	0
bin	335	0
bin	340	0
bin	345	0
bin	350	0
bin	355	0
bin	360	0
bin	365	0
bin	370	0
bin	375	0
bin	380	0
bin	385	0
bin	390	0
bin	395	0
bin	400	0
bin	405	0
bin	410	0
bin	415	0
bin	420	0
bin	425	0
bin	430	0
bin	435	0
bin	440	0
bin	445	0
bin	450	0
bin	455	0
bin	460	0
bin	465	0
bin	470	0
bin	475	0
bin	480	0
bin	485	0
bin	490	0
bin	495	0
bin	500	0
bin	505	0
bin	510	1
bin	515	0
bin	520	0
bin	525	0
bin	530	0
bin	535	0
bin	540	0
bin	545	0
bin	550	0
bin	555	0
bin	560	0
bin	565	0
bin	570	0
bin	575	0
scalar QosShowcase.server.wlan[0].mac.dcf.channelAccess.pendingQueue droppedPacketsQueueOverflow:count 0
attr interpolationmode none
attr recordingmode count
attr source packetDropReasonIsQueueOverflow(packetDropped)
attr title "dropped packets: queue overflow, count"
attr unit pk
scalar QosShowcase.server.wlan[0].mac.dcf.channelAccess.pendingQueue droppedPacketLengthsQueueOverflow:sum 0
attr interpolationmode none
attr recordingmode sum
attr source packetLength(packetDropReasonIsQueueOverflow(packetDropped))
attr title "dropped packet lengths: queue overflow, sum"
attr unit b
par QosShowcase.server.wlan[0].mac.dcf.channelAccess.inProgressFrames typename "\"inet.linklayer.ieee80211.mac.queue.InProgressFrames\""
par QosShowcase.server.wlan[0].mac.dcf.channelAccess.inProgressFrames pendingQueueModule "\"^.pendingQueue\""
par QosShowcase.server.wlan[0].mac.dcf.channelAccess.inProgressFrames originatorMacDataServiceModule "\"^.^.originatorMacDataService\""
par QosShowcase.server.wlan[0].mac.dcf.channelAccess.inProgressFrames ackHandlerModule "\"^.^.ackHandler\""
statistic QosShowcase.server.wlan[0].mac.dcf.channelAccess.inProgressFrames queueingTime:histogram
field count 5
field mean 7.71547696e-05
field stddev 1.9728293654269e-05
field min 4.2e-05
field max 8.6943462e-05
field sum 0.000385773848
field sqrsum 3.1321114642182e-08
attr interpolationmode none
attr recordingmode histogram
attr source queueingTime(packetDequeued)
attr title "queueing times"
bin	-inf	0
bin	3e-05	0
bin	3.1e-05	0
bin	3.2e-05	0
bin	3.3e-05	0
bin	3.4e-05	0
bin	3.5e-05	0
bin	3.6e-05	0
bin	3.7e-05	0
bin	3.8e-05	0
bin	3.9e-05	0
bin	4e-05	0
bin	4.1e-05	1
bin	4.2e-05	0
bin	4.3e-05	0
bin	4.4e-05	0
bin	4.5e-05	0
bin	4.6e-05	0
bin	4.7e-05	0
bin	4.8e-05	0
bin	4.9e-05	0
bin	5e-05	0
bin	5.1e-05	0
bin	5.2e-05	0
bin	5.3e-05	0
bin	5.4e-05	0
bin	5.5e-05	0
bin	5.6e-05	0
bin	5.7e-05	0
bin	5.8e-05	0
bin	5.9e-05	0
bin	6e-05	0
bin	6.1e-05	0
bin	6.2e-05	0
bin	6.3e-05	0
bin	6.4e-05	0
bin	6.5e-05	0
bin	6.6e-05	0
bin	6.7e-05	0
bin	6.8e-05	0
bin	6.9e-05	0
bin	7e-05	0
bin	7.1e-05	0
bin	7.2e-05	0
bin	7.3e-05	0
bin	7.4e-05	0
bin	7.5e-05	0
bin	7.6e-05	0
bin	7.7e-05	0
bin	7.8e-05	0
bin	7.9e-05	0
bin	8e-05	0
bin	8.1e-05	0
bin	8.2e-05	1
bin	8.3e-05	0
bin	8.4e-05	0
bin	8.5e-05	0
bin	8.6e-05	3
bin	8.7e-05	0
bin	8.8e-05	0
bin	8.9e-05	0
bin	9e-05	0
bin	9.1e-05	0
bin	9.2e-05	0
bin	9.3e-05	0
bin	9.4e-05	0
bin	9.5e-05	0
bin	9.6e-05	0
bin	9.7e-05	0
bin	9.8e-05	0
bin	9.9e-05	0
scalar QosShowcase.server.wlan[0].mac.dcf.channelAccess.inProgressFrames queueLength:max 1
attr autoWarmupFilter false
attr interpolationmode sample-hold
attr recordingmode max
attr source "warmup(count(packetEnqueued) - count(packetDequeued))"
attr title "queue length, max"
scalar QosShowcase.server.wlan[0].mac.dcf.channelAccess.inProgressFrames queueLength:timeavg 0.00036960743696125
attr autoWarmupFilter false
attr interpolationmode sample-hold
attr recordingmode timeavg
attr source "warmup(count(packetEnqueued) - count(packetDequeued))"
attr title "queue length, timeavg"
par QosShowcase.server.wlan[0].mac.dcf.channelAccess.contention typename "\"inet.linklayer.ieee80211.mac.contention.Contention\""
par QosShowcase.server.wlan[0].mac.dcf.channelAccess.contention initialChannelBusy true
par QosShowcase.server.wlan[0].mac.dcf.channelAccess.contention backoffOptimization true
scalar QosShowcase.server.wlan[0].mac.dcf.channelAccess.contention channelAccessGranted:count 5
attr recordingmode count
attr title "channel access granted, count"
scalar QosShowcase.server.wlan[0].mac.dcf.channelAccess.contention stateChanged:count 994
attr enum IDLE,DEFER,IFS_AND_BACKOFF
attr interpolationmode none
attr recordingmode count
attr title "contention state changed, count"
attr type enum
par QosShowcase.server.wlan[0].mac.dcf.channelAccess typename "\"inet.linklayer.ieee80211.mac.channelaccess.Dcaf\""
par QosShowcase.server.wlan[0].mac.dcf.channelAccess difsn -1
par QosShowcase.server.wlan[0].mac.dcf.channelAccess cwMin -1
par QosShowcase.server.wlan[0].mac.dcf.channelAccess cwMax -1
par QosShowcase.server.wlan[0].mac.dcf.channelAccess rxModule "\"^.^.rx\""
scalar QosShowcase.server.wlan[0].mac.dcf.channelAccess channelOwnershipChanged:count 10
attr interpolationmode sample-hold
attr recordingmode count
attr title "channel ownership, count"
par QosShowcase.server.wlan[0].mac.dcf.originatorMacDataService.fragmentationPolicy typename "\"inet.linklayer.ieee80211.mac.fragmentation.BasicFragmentationPolicy\""
par QosShowcase.server.wlan[0].mac.dcf.originatorMacDataService.fragmentationPolicy fragmentationThreshold 1500B
attr unit B
par QosShowcase.server.wlan[0].mac.dcf.originatorMacDataService typename "\"inet.linklayer.ieee80211.mac.originator.OriginatorMacDataService\""
scalar QosShowcase.server.wlan[0].mac.dcf.originatorMacDataService packetAggregated:count 0
attr recordingmode count
attr title "packets aggregated, count"
scalar QosShowcase.server.wlan[0].mac.dcf.originatorMacDataService packetFragmented:count 0
attr recordingmode count
attr title "packets fragmented, count"
par QosShowcase.server.wlan[0].mac.dcf.recipientMacDataService typename "\"inet.linklayer.ieee80211.mac.recipient.RecipientMacDataService\""
scalar QosShowcase.server.wlan[0].mac.dcf.recipientMacDataService packetDropDuplicateDetected:count 0
attr interpolationmode none
attr recordingmode count
attr source packetDropReasonIsDuplicateDetected(packetDropped)
attr title "packet drops: duplicate detected, count"
scalar QosShowcase.server.wlan[0].mac.dcf.recipientMacDataService packetDropDuplicateDetected:sum(packetBytes) 0
attr interpolationmode none
attr recordingmode sum(packetBytes)
attr source packetDropReasonIsDuplicateDetected(packetDropped)
attr title "packet drops: duplicate detected, sum(packetBytes)"
scalar QosShowcase.server.wlan[0].mac.dcf.recipientMacDataService packetDeaggregated:count 0
attr recordingmode count
attr title "packets deaggregated, count"
scalar QosShowcase.server.wlan[0].mac.dcf.recipientMacDataService packetDefragmented:count 61
attr recordingmode count
attr title "packets defragmented, count"
par QosShowcase.server.wlan[0].mac.dcf.rateSelection typename "\"inet.linklayer.ieee80211.mac.rateselection.RateSelection\""
par QosShowcase.server.wlan[0].mac.dcf.rateSelection rateControlModule "\"^.rateControl\""
par QosShowcase.server.wlan[0].mac.dcf.rateSelection multicastFrameBitrate -1bps
attr unit bps
par QosShowcase.server.wlan[0].mac.dcf.rateSelection responseAckFrameBitrate -1bps
attr unit bps
par QosShowcase.server.wlan[0].mac.dcf.rateSelection responseCtsFrameBitrate -1bps
attr unit bps
par QosShowcase.server.wlan[0].mac.dcf.rateSelection dataFrameBitrate 5.4e+07bps
attr unit bps
par QosShowcase.server.wlan[0].mac.dcf.rateSelection dataFrameBandwidth "nan Hz"
attr unit Hz
par QosShowcase.server.wlan[0].mac.dcf.rateSelection dataFrameNumSpatialStreams -1
par QosShowcase.server.wlan[0].mac.dcf.rateSelection mgmtFrameBitrate -1bps
attr unit bps
par QosShowcase.server.wlan[0].mac.dcf.rateSelection controlFrameBitrate -1bps
attr unit bps
par QosShowcase.server.wlan[0].mac.dcf.recoveryProcedure typename "\"inet.linklayer.ieee80211.mac.originator.NonQosRecoveryProcedure\""
par QosShowcase.server.wlan[0].mac.dcf.recoveryProcedure cwCalculatorModule "\"^.channelAccess\""
par QosShowcase.server.wlan[0].mac.dcf.recoveryProcedure rtsPolicyModule "\"^.rtsPolicy\""
par QosShowcase.server.wlan[0].mac.dcf.recoveryProcedure shortRetryLimit 7
par QosShowcase.server.wlan[0].mac.dcf.recoveryProcedure longRetryLimit 4
scalar QosShowcase.server.wlan[0].mac.dcf.recoveryProcedure retryLimitReached:count 0
attr recordingmode count
attr title "retry limit reached, count"
par QosShowcase.server.wlan[0].mac.dcf.originatorProtectionMechanism typename "\"inet.linklayer.ieee80211.mac.protectionmechanism.OriginatorProtectionMechanism\""
par QosShowcase.server.wlan[0].mac.dcf.originatorProtectionMechanism rateSelectionModule "\"^.rateSelection\""
par QosShowcase.server.wlan[0].mac.dcf.ackHandler typename "\"inet.linklayer.ieee80211.mac.originator.AckHandler\""
par QosShowcase.server.wlan[0].mac.dcf.originatorAckPolicy typename "\"inet.linklayer.ieee80211.mac.originator.OriginatorAckPolicy\""
par QosShowcase.server.wlan[0].mac.dcf.originatorAckPolicy rateSelectionModule "\"^.rateSelection\""
par QosShowcase.server.wlan[0].mac.dcf.originatorAckPolicy ackTimeout -1s
attr unit s
par QosShowcase.server.wlan[0].mac.dcf.recipientAckPolicy typename "\"inet.linklayer.ieee80211.mac.recipient.RecipientAckPolicy\""
par QosShowcase.server.wlan[0].mac.dcf.recipientAckPolicy rateSelectionModule "\"^.rateSelection\""
par QosShowcase.server.wlan[0].mac.dcf.rtsPolicy typename "\"inet.linklayer.ieee80211.mac.originator.RtsPolicy\""
par QosShowcase.server.wlan[0].mac.dcf.rtsPolicy rateSelectionModule "\"^.rateSelection\""
par QosShowcase.server.wlan[0].mac.dcf.rtsPolicy ctsTimeout -1s
attr unit s
par QosShowcase.server.wlan[0].mac.dcf.rtsPolicy rtsThreshold 2346B
attr unit B
par QosShowcase.server.wlan[0].mac.dcf.ctsPolicy typename "\"inet.linklayer.ieee80211.mac.recipient.CtsPolicy\""
par QosShowcase.server.wlan[0].mac.dcf.ctsPolicy rxModule "\"^.^.rx\""
par QosShowcase.server.wlan[0].mac.dcf.ctsPolicy rateSelectionModule "\"^.rateSelection\""
par QosShowcase.server.wlan[0].mac.dcf typename "\"inet.linklayer.ieee80211.mac.coordinationfunction.Dcf\""
par QosShowcase.server.wlan[0].mac.dcf rxModule "\"^.rx\""
par QosShowcase.server.wlan[0].mac.dcf txModule "\"^.tx\""
scalar QosShowcase.server.wlan[0].mac.dcf packetReceivedFromPeer:count 65
attr interpolationmode none
attr recordingmode count
attr title "packets received, count"
scalar QosShowcase.server.wlan[0].mac.dcf packetReceivedFromPeer:sum(packetBytes) 42768
attr interpolationmode none
attr recordingmode sum(packetBytes)
attr title "packets received, sum(packetBytes)"
scalar QosShowcase.server.wlan[0].mac.dcf packetReceivedFromPeerUnicast:count 53
attr interpolationmode none
attr recordingmode count
attr source ieee80211Unicast(packetReceivedFromPeer)
attr title "packets received: unicast, count"
scalar QosShowcase.server.wlan[0].mac.dcf packetReceivedFromPeerUnicast:sum(packetBytes) 42104
attr interpolationmode none
attr recordingmode sum(packetBytes)
attr source ieee80211Unicast(packetReceivedFromPeer)
attr title "packets received: unicast, sum(packetBytes)"
scalar QosShowcase.server.wlan[0].mac.dcf packetReceivedFromPeerMulticast:count 12
attr interpolationmode none
attr recordingmode count
attr source ieee80211Multicast(packetReceivedFromPeer)
attr title "packets received: multicast, count"
scalar QosShowcase.server.wlan[0].mac.dcf packetReceivedFromPeerMulticast:sum(packetBytes) 664
attr interpolationmode none
attr recordingmode sum(packetBytes)
attr source ieee80211Multicast(packetReceivedFromPeer)
attr title "packets received: multicast, sum(packetBytes)"
scalar QosShowcase.server.wlan[0].mac.dcf packetReceivedFromPeerBroadcast:count 12
attr interpolationmode none
attr recordingmode count
attr source ieee80211Broadcast(packetReceivedFromPeer)
attr title "packets received: broadcast, count"
scalar QosShowcase.server.wlan[0].mac.dcf packetReceivedFromPeerBroadcast:sum(packetBytes) 664
attr interpolationmode none
attr recordingmode sum(packetBytes)
attr source ieee80211Broadcast(packetReceivedFromPeer)
attr title "packets received: broadcast, sum(packetBytes)"
scalar QosShowcase.server.wlan[0].mac.dcf packetReceivedFromPeerWithRetry:count 2
attr interpolationmode none
attr recordingmode count
attr source ieee80211Retry(packetReceivedFromPeer)
attr title "packets received: with retry, count"
scalar QosShowcase.server.wlan[0].mac.dcf packetReceivedFromPeerWithRetry:sum(packetBytes) 1928
attr interpolationmode none
attr recordingmode sum(packetBytes)
attr source ieee80211Retry(packetReceivedFromPeer)
attr title "packets received: with retry, sum(packetBytes)"
[...]
par QosShowcase.visualizer.physicalLinkVisualizer lineContactSpacing 3
par QosShowcase.visualizer.physicalLinkVisualizer lineContactMode "\"rectangular\""
attr enum circular,rectangular
par QosShowcase.visualizer.physicalLinkVisualizer labelFormat "\"%n\""
par QosShowcase.visualizer.physicalLinkVisualizer labelFont "\"<default>, 8px\""
par QosShowcase.visualizer.physicalLinkVisualizer labelColor "\"olive\""
par QosShowcase.visualizer.physicalLinkVisualizer fadeOutMode "\"realTime\""
attr enum realTime,animationTime,simulationTime
par QosShowcase.visualizer.physicalLinkVisualizer fadeOutTime 1s
attr unit s
par QosShowcase.visualizer.physicalLinkVisualizer fadeOutAnimationSpeed 0
par QosShowcase.visualizer.physicalLinkVisualizer holdAnimationTime 0s
attr unit s
par QosShowcase.visualizer.physicalLinkVisualizer zIndex 1
par QosShowcase.visualizer.interfaceTableVisualizer typename "\"inet.visualizer.canvas.linklayer.InterfaceTableCanvasVisualizer\""
par QosShowcase.visualizer.interfaceTableVisualizer visualizationTargetModule "\"^.^\""
par QosShowcase.visualizer.interfaceTableVisualizer visualizationSubjectModule "\"^.^\""
par QosShowcase.visualizer.interfaceTableVisualizer tags "\"\""
par QosShowcase.visualizer.interfaceTableVisualizer networkNodeVisualizerModule "\"^.networkNodeVisualizer\""
par QosShowcase.visualizer.interfaceTableVisualizer displayInterfaceTables false
par QosShowcase.visualizer.interfaceTableVisualizer displayWiredInterfacesAtConnections true
par QosShowcase.visualizer.interfaceTableVisualizer displayBackground false
par QosShowcase.visualizer.interfaceTableVisualizer nodeFilter "\"*\""
attr mutable ""
par QosShowcase.visualizer.interfaceTableVisualizer interfaceFilter "\"not(lo*)\""
attr mutable ""
par QosShowcase.visualizer.interfaceTableVisualizer format "\"%N %\\\\%a%/%l\""
attr mutable ""
par QosShowcase.visualizer.interfaceTableVisualizer placementHint "\"top\""
par QosShowcase.visualizer.interfaceTableVisualizer placementPriority 0
par QosShowcase.visualizer.interfaceTableVisualizer font "\"<default>\""
par QosShowcase.visualizer.interfaceTableVisualizer textColor "\"#005030\""
par QosShowcase.visualizer.interfaceTableVisualizer backgroundColor "\"white\""
par QosShowcase.visualizer.interfaceTableVisualizer opacity 1
par QosShowcase.visualizer.interfaceTableVisualizer zIndex 10
par QosShowcase.visualizer.interfaceTableVisualizer anchor "\"l\""
attr enum l,r,t
par QosShowcase.visualizer.dataLinkVisualizer typename "\"inet.visualizer.canvas.linklayer.DataLinkCanvasVisualizer\""
par QosShowcase.visualizer.dataLinkVisualizer visualizationTargetModule "\"^.^\""
par QosShowcase.visualizer.dataLinkVisualizer visualizationSubjectModule "\"^.^\""
par QosShowcase.visualizer.dataLinkVisualizer tags "\"\""
par QosShowcase.visualizer.dataLinkVisualizer displayLinks false
par QosShowcase.visualizer.dataLinkVisualizer activityLevel "\"service\""
attr enum service,peer,protocol
par QosShowcase.visualizer.dataLinkVisualizer nodeFilter "\"*\""
attr mutable ""
par QosShowcase.visualizer.dataLinkVisualizer interfaceFilter "\"*\""
attr mutable ""
par QosShowcase.visualizer.dataLinkVisualizer packetFilter "(omnetpp::cValueHolder)holder: \"*\""
attr mutable ""
par QosShowcase.visualizer.dataLinkVisualizer lineColor "\"darkcyan\""
par QosShowcase.visualizer.dataLinkVisualizer lineStyle "\"solid\""
par QosShowcase.visualizer.dataLinkVisualizer lineWidth 3
par QosShowcase.visualizer.dataLinkVisualizer lineShift 16
par QosShowcase.visualizer.dataLinkVisualizer lineShiftMode "\"normal\""
par QosShowcase.visualizer.dataLinkVisualizer lineContactSpacing 3
par QosShowcase.visualizer.dataLinkVisualizer lineContactMode "\"rectangular\""
attr enum circular,rectangular
par QosShowcase.visualizer.dataLinkVisualizer labelFormat "\"%n\""
par QosShowcase.visualizer.dataLinkVisualizer labelFont "\"<default>, 8px\""
par QosShowcase.visualizer.dataLinkVisualizer labelColor "\"darkcyan\""
par QosShowcase.visualizer.dataLinkVisualizer fadeOutMode "\"realTime\""
attr enum realTime,animationTime,simulationTime
par QosShowcase.visualizer.dataLinkVisualizer fadeOutTime 1s
attr unit s
par QosShowcase.visualizer.dataLinkVisualizer fadeOutAnimationSpeed 0
par QosShowcase.visualizer.dataLinkVisualizer holdAnimationTime 0s
attr unit s
par QosShowcase.visualizer.dataLinkVisualizer zIndex 2
par QosShowcase.visualizer.linkBreakVisualizer typename "\"inet.visualizer.canvas.linklayer.LinkBreakCanvasVisualizer\""
par QosShowcase.visualizer.linkBreakVisualizer visualizationTargetModule "\"^.^\""
par QosShowcase.visualizer.linkBreakVisualizer visualizationSubjectModule "\"^.^\""
par QosShowcase.visualizer.linkBreakVisualizer tags "\"\""
par QosShowcase.visualizer.linkBreakVisualizer displayLinkBreaks false
par QosShowcase.visualizer.linkBreakVisualizer nodeFilter "\"*\""
attr mutable ""
par QosShowcase.visualizer.linkBreakVisualizer interfaceFilter "\"*\""
attr mutable ""
par QosShowcase.visualizer.linkBreakVisualizer packetFilter "(omnetpp::cValueHolder)holder: \"*\""
attr mutable ""
par QosShowcase.visualizer.linkBreakVisualizer icon "\"status/stop\""
par QosShowcase.visualizer.linkBreakVisualizer iconTintAmount 0
par QosShowcase.visualizer.linkBreakVisualizer iconTintColor "\"\""
par QosShowcase.visualizer.linkBreakVisualizer fadeOutMode "\"realTime\""
attr enum realTime,animationTime,simulationTime
par QosShowcase.visualizer.linkBreakVisualizer fadeOutTime 1s
attr unit s
par QosShowcase.visualizer.linkBreakVisualizer fadeOutAnimationSpeed 0
par QosShowcase.visualizer.linkBreakVisualizer zIndex 2
par QosShowcase.visualizer.ieee80211Visualizer typename "\"inet.visualizer.canvas.linklayer.Ieee80211CanvasVisualizer\""
par QosShowcase.visualizer.ieee80211Visualizer visualizationTargetModule "\"^.^\""
par QosShowcase.visualizer.ieee80211Visualizer visualizationSubjectModule "\"^.^\""
par QosShowcase.visualizer.ieee80211Visualizer tags "\"\""
par QosShowcase.visualizer.ieee80211Visualizer networkNodeVisualizerModule "\"^.networkNodeVisualizer\""
par QosShowcase.visualizer.ieee80211Visualizer displayAssociations false
par QosShowcase.visualizer.ieee80211Visualizer nodeFilter "\"*\""
attr mutable ""
par QosShowcase.visualizer.ieee80211Visualizer interfaceFilter "\"*\""
attr mutable ""
par QosShowcase.visualizer.ieee80211Visualizer minPower -85dBm
attr unit dBm
par QosShowcase.visualizer.ieee80211Visualizer maxPower -50dBm
attr unit dBm
par QosShowcase.visualizer.ieee80211Visualizer icons "\"misc/signal_power_0 misc/signal_power_1 misc/signal_power_2 misc/signal_power_3\""
par QosShowcase.visualizer.ieee80211Visualizer iconColor "\"dark\""
par QosShowcase.visualizer.ieee80211Visualizer labelFont "\"<default>\""
par QosShowcase.visualizer.ieee80211Visualizer labelColor "\"black\""
par QosShowcase.visualizer.ieee80211Visualizer placementHint "\"top\""
par QosShowcase.visualizer.ieee80211Visualizer placementPriority 0
par QosShowcase.visualizer.ieee80211Visualizer zIndex 2
par QosShowcase.visualizer.networkRouteVisualizer typename "\"inet.visualizer.canvas.networklayer.NetworkRouteCanvasVisualizer\""
par QosShowcase.visualizer.networkRouteVisualizer visualizationTargetModule "\"^.^\""
par QosShowcase.visualizer.networkRouteVisualizer visualizationSubjectModule "\"^.^\""
par QosShowcase.visualizer.networkRouteVisualizer tags "\"\""
par QosShowcase.visualizer.networkRouteVisualizer displayRoutes false
par QosShowcase.visualizer.networkRouteVisualizer startPathSignal "\"packetReceivedFromUpper\""
par QosShowcase.visualizer.networkRouteVisualizer extendPathSignal "\"packetReceivedFromLower\""
par QosShowcase.visualizer.networkRouteVisualizer endPathSignal "\"packetSentToUpper\""
par QosShowcase.visualizer.networkRouteVisualizer nodeFilter "\"*\""
attr mutable ""
par QosShowcase.visualizer.networkRouteVisualizer packetFilter "(omnetpp::cValueHolder)holder: \"*\""
attr mutable ""
par QosShowcase.visualizer.networkRouteVisualizer lineColor "\"dark\""
par QosShowcase.visualizer.networkRouteVisualizer lineStyle "\"solid\""
par QosShowcase.visualizer.networkRouteVisualizer lineWidth 3
par QosShowcase.visualizer.networkRouteVisualizer lineSmooth false
par QosShowcase.visualizer.networkRouteVisualizer lineShift 16
par QosShowcase.visualizer.networkRouteVisualizer lineShiftMode "\"normal\""
par QosShowcase.visualizer.networkRouteVisualizer lineContactSpacing 3
par QosShowcase.visualizer.networkRouteVisualizer lineContactMode "\"rectangular\""
attr enum circular,rectangular
par QosShowcase.visualizer.networkRouteVisualizer labelFormat "\"%n\""
par QosShowcase.visualizer.networkRouteVisualizer labelFont "\"<default>, 8px\""
par QosShowcase.visualizer.networkRouteVisualizer labelColor "\"\""
par QosShowcase.visualizer.networkRouteVisualizer fadeOutMode "\"realTime\""
attr enum realTime,animationTime,simulationTime
par QosShowcase.visualizer.networkRouteVisualizer fadeOutTime 1s
attr unit s
par QosShowcase.visualizer.networkRouteVisualizer fadeOutAnimationSpeed 0
par QosShowcase.visualizer.networkRouteVisualizer zIndex 3
par QosShowcase.visualizer.routingTableVisualizer typename "\"inet.visualizer.canvas.networklayer.RoutingTableCanvasVisualizer\""
par QosShowcase.visualizer.routingTableVisualizer visualizationTargetModule "\"^.^\""
par QosShowcase.visualizer.routingTableVisualizer visualizationSubjectModule "\"^.^\""
par QosShowcase.visualizer.routingTableVisualizer tags "\"\""
par QosShowcase.visualizer.routingTableVisualizer displayRoutingTables false
par QosShowcase.visualizer.routingTableVisualizer displayRoutesIndividually true
par QosShowcase.visualizer.routingTableVisualizer displayLabels true
par QosShowcase.visualizer.routingTableVisualizer destinationFilter "\"*\""
attr mutable ""
par QosShowcase.visualizer.routingTableVisualizer nodeFilter "\"*\""
attr mutable ""
par QosShowcase.visualizer.routingTableVisualizer multicastSourceNodeFilter "\"*\""
attr mutable ""
par QosShowcase.visualizer.routingTableVisualizer multicastSourceAddressFilter "\"*\""
attr mutable ""
par QosShowcase.visualizer.routingTableVisualizer multicastGroupFilter "\"*\""
attr mutable ""
par QosShowcase.visualizer.routingTableVisualizer lineColor "\"black\""
par QosShowcase.visualizer.routingTableVisualizer lineStyle "\"solid\""
par QosShowcase.visualizer.routingTableVisualizer lineWidth 2
par QosShowcase.visualizer.routingTableVisualizer lineShift 16
par QosShowcase.visualizer.routingTableVisualizer lineShiftMode "\"normal\""
par QosShowcase.visualizer.routingTableVisualizer lineContactSpacing 3
par QosShowcase.visualizer.routingTableVisualizer lineContactMode "\"rectangular\""
attr enum circular,rectangular
par QosShowcase.visualizer.routingTableVisualizer labelFormat "\"%d/%m -> %g (%n)\""
attr mutable ""
par QosShowcase.visualizer.routingTableVisualizer labelFont "\"<default>, 8px\""
par QosShowcase.visualizer.routingTableVisualizer labelColor "\"black\""
par QosShowcase.visualizer.routingTableVisualizer zIndex 0
par QosShowcase.visualizer.transportRouteVisualizer typename "\"inet.visualizer.canvas.transportlayer.TransportRouteCanvasVisualizer\""
par QosShowcase.visualizer.transportRouteVisualizer visualizationTargetModule "\"^.^\""
par QosShowcase.visualizer.transportRouteVisualizer visualizationSubjectModule "\"^.^\""
par QosShowcase.visualizer.transportRouteVisualizer tags "\"\""
par QosShowcase.visualizer.transportRouteVisualizer displayRoutes false
par QosShowcase.visualizer.transportRouteVisualizer startPathSignal "\"packetReceivedFromUpper\""
par QosShowcase.visualizer.transportRouteVisualizer extendPathSignal "\"packetReceivedFromLower\""
par QosShowcase.visualizer.transportRouteVisualizer endPathSignal "\"packetSentToUpper\""
par QosShowcase.visualizer.transportRouteVisualizer nodeFilter "\"*\""
attr mutable ""
par QosShowcase.visualizer.transportRouteVisualizer packetFilter "(omnetpp::cValueHolder)holder: \"*\""
attr mutable ""
par QosShowcase.visualizer.transportRouteVisualizer lineColor "\"dark\""
par QosShowcase.visualizer.transportRouteVisualizer lineStyle "\"solid\""
par QosShowcase.visualizer.transportRouteVisualizer lineWidth 3
par QosShowcase.visualizer.transportRouteVisualizer lineSmooth false
par QosShowcase.visualizer.transportRouteVisualizer lineShift 16
par QosShowcase.visualizer.transportRouteVisualizer lineShiftMode "\"normal\""
par QosShowcase.visualizer.transportRouteVisualizer lineContactSpacing 3
par QosShowcase.visualizer.transportRouteVisualizer lineContactMode "\"rectangular\""
attr enum circular,rectangular
par QosShowcase.visualizer.transportRouteVisualizer labelFormat "\"%n\""
par QosShowcase.visualizer.transportRouteVisualizer labelFont "\"<default>, 8px\""
par QosShowcase.visualizer.transportRouteVisualizer labelColor "\"\""
par QosShowcase.visualizer.transportRouteVisualizer fadeOutMode "\"realTime\""
attr enum realTime,animationTime,simulationTime
par QosShowcase.visualizer.transportRouteVisualizer fadeOutTime 1s
attr unit s
par QosShowcase.visualizer.transportRouteVisualizer fadeOutAnimationSpeed 0
par QosShowcase.visualizer.transportRouteVisualizer zIndex 4
par QosShowcase.visualizer.transportConnectionVisualizer typename "\"inet.visualizer.canvas.transportlayer.TransportConnectionCanvasVisualizer\""
par QosShowcase.visualizer.transportConnectionVisualizer visualizationTargetModule "\"^.^\""
par QosShowcase.visualizer.transportConnectionVisualizer visualizationSubjectModule "\"^.^\""
par QosShowcase.visualizer.transportConnectionVisualizer tags "\"\""
par QosShowcase.visualizer.transportConnectionVisualizer networkNodeVisualizerModule "\"^.networkNodeVisualizer\""
par QosShowcase.visualizer.transportConnectionVisualizer displayTransportConnections false
par QosShowcase.visualizer.transportConnectionVisualizer sourceNodeFilter "\"*\""
attr mutable ""
par QosShowcase.visualizer.transportConnectionVisualizer sourcePortFilter "\"*\""
attr mutable ""
par QosShowcase.visualizer.transportConnectionVisualizer destinationNodeFilter "\"*\""
attr mutable ""
par QosShowcase.visualizer.transportConnectionVisualizer destinationPortFilter "\"*\""
attr mutable ""
par QosShowcase.visualizer.transportConnectionVisualizer icon "\"misc/marker_s\""
par QosShowcase.visualizer.transportConnectionVisualizer iconColor "\"dark\""
par QosShowcase.visualizer.transportConnectionVisualizer labelFont "\"<default>\""
par QosShowcase.visualizer.transportConnectionVisualizer labelColor "\"black\""
par QosShowcase.visualizer.transportConnectionVisualizer placementHint "\"top\""
par QosShowcase.visualizer.transportConnectionVisualizer placementPriority 0
par QosShowcase.visualizer.transportConnectionVisualizer zIndex 4
par QosShowcase.visualizer.failureProtectionConfigurationVisualizer typename "\"inet.visualizer.canvas.configurator.FailureProtectionConfigurationCanvasVisualizer\""
par QosShowcase.visualizer.failureProtectionConfigurationVisualizer visualizationTargetModule "\"^.^\""
par QosShowcase.visualizer.failureProtectionConfigurationVisualizer visualizationSubjectModule "\"^.^\""
par QosShowcase.visualizer.failureProtectionConfigurationVisualizer tags "\"\""
par QosShowcase.visualizer.failureProtectionConfigurationVisualizer displayTrees false
par QosShowcase.visualizer.failureProtectionConfigurationVisualizer lineColor "\"dark\""
par QosShowcase.visualizer.failureProtectionConfigurationVisualizer lineStyle "\"solid\""
par QosShowcase.visualizer.failureProtectionConfigurationVisualizer lineWidth 3
par QosShowcase.visualizer.failureProtectionConfigurationVisualizer lineSmooth false
par QosShowcase.visualizer.failureProtectionConfigurationVisualizer lineShift 16
par QosShowcase.visualizer.failureProtectionConfigurationVisualizer lineShiftMode "\"normal\""
par QosShowcase.visualizer.failureProtectionConfigurationVisualizer lineContactSpacing 3
par QosShowcase.visualizer.failureProtectionConfigurationVisualizer lineContactMode "\"rectangular\""
attr enum circular,rectangular
par QosShowcase.visualizer.failureProtectionConfigurationVisualizer failureProtectionConfiguratorModule "\"failureProtectionConfigurator\""
par QosShowcase.visualizer.failureProtectionConfigurationVisualizer streamFilter "\"*\""
par QosShowcase.visualizer.failureProtectionConfigurationVisualizer zIndex 3
par QosShowcase.visualizer.streamRedundancyConfigurationVisualizer typename "\"inet.visualizer.canvas.configurator.StreamRedundancyConfigurationCanvasVisualizer\""
par QosShowcase.visualizer.streamRedundancyConfigurationVisualizer visualizationTargetModule "\"^.^\""
par QosShowcase.visualizer.streamRedundancyConfigurationVisualizer visualizationSubjectModule "\"^.^\""
par QosShowcase.visualizer.streamRedundancyConfigurationVisualizer tags "\"\""
par QosShowcase.visualizer.streamRedundancyConfigurationVisualizer displayTrees false
par QosShowcase.visualizer.streamRedundancyConfigurationVisualizer lineColor "\"dark\""
par QosShowcase.visualizer.streamRedundancyConfigurationVisualizer lineStyle "\"solid\""
par QosShowcase.visualizer.streamRedundancyConfigurationVisualizer lineWidth 3
par QosShowcase.visualizer.streamRedundancyConfigurationVisualizer lineSmooth false
par QosShowcase.visualizer.streamRedundancyConfigurationVisualizer lineShift 16
par QosShowcase.visualizer.streamRedundancyConfigurationVisualizer lineShiftMode "\"normal\""
par QosShowcase.visualizer.streamRedundancyConfigurationVisualizer lineContactSpacing 3
par QosShowcase.visualizer.streamRedundancyConfigurationVisualizer lineContactMode "\"rectangular\""
attr enum circular,rectangular
par QosShowcase.visualizer.streamRedundancyConfigurationVisualizer streamRedundancyConfiguratorModule "\"streamRedundancyConfigurator\""
par QosShowcase.visualizer.streamRedundancyConfigurationVisualizer streamFilter "\"*\""
par QosShowcase.visualizer.streamRedundancyConfigurationVisualizer zIndex 3
par QosShowcase.visualizer.channelVisualizer typename "\"inet.visualizer.canvas.physicallayer.ChannelCanvasVisualizer\""
par QosShowcase.visualizer.channelVisualizer visualizationTargetModule "\"^.^\""
par QosShowcase.visualizer.channelVisualizer visualizationSubjectModule "\"^.^\""
par QosShowcase.visualizer.channelVisualizer tags "\"\""
par QosShowcase.visualizer.channelVisualizer displayChannelActivity false
par QosShowcase.visualizer.channelVisualizer nodeFilter "\"*\""
attr mutable ""
par QosShowcase.visualizer.channelVisualizer packetFilter "(omnetpp::cValueHolder)holder: \"*\""
attr mutable ""
par QosShowcase.visualizer.channelVisualizer lineColor "\"blue\""
par QosShowcase.visualizer.channelVisualizer lineStyle "\"solid\""
par QosShowcase.visualizer.channelVisualizer lineWidth 3
par QosShowcase.visualizer.channelVisualizer lineShift 16
par QosShowcase.visualizer.channelVisualizer lineShiftMode "\"normal\""
par QosShowcase.visualizer.channelVisualizer lineContactSpacing 3
par QosShowcase.visualizer.channelVisualizer lineContactMode "\"rectangular\""
attr enum circular,rectangular
par QosShowcase.visualizer.channelVisualizer labelFormat "\"%n\""
par QosShowcase.visualizer.channelVisualizer labelFont "\"<default>, 8px\""
par QosShowcase.visualizer.channelVisualizer labelColor "\"blue\""
par QosShowcase.visualizer.channelVisualizer fadeOutMode "\"realTime\""
attr enum realTime,animationTime,simulationTime
par QosShowcase.visualizer.channelVisualizer fadeOutTime 1s
attr unit s
par QosShowcase.visualizer.channelVisualizer fadeOutAnimationSpeed 0
par QosShowcase.visualizer.channelVisualizer holdAnimationTime 0s
attr unit s
par QosShowcase.visualizer.channelVisualizer zIndex 1
par QosShowcase.visualizer typename "\"inet.visualizer.canvas.integrated.IntegratedCanvasVisualizer\""
par QosShowcase typename "\"qos_implementation.simulations.QosShowcase\""

