version 3
run Qos-0-20250402-14:27:55-25172
attr configname Qos
attr datetime 20250402-14:27:55
attr datetimef 20250402-142755
attr experiment Qos
attr inifile omnetpp.ini
attr iterationvars ""
attr iterationvarsd ""
attr iterationvarsf ""
attr measurement ""
attr network QosShowcase
attr processid 25172
attr repetition 0
attr replication #0
attr resultdir results
attr runnumber 0
attr seedset 0
config image-path ../../inet-master/images
config extends NonQos
config *.*.wlan[*].mac.qosStation true
config *.*.wlan[*].classifier.typename QosClassifier
config network QosShowcase
config sim-time-limit 10s
config *.*.wlan[*].bitrate 54Mbps
config *.client.numApps 4
config *.client.app[*].typename UdpBasicApp
config *.client.app[*].destAddresses "\"server\""
config *.client.app[*].startTime 1.0s+this.sendInterval*index/4
config *.client.app[*].stopTime 6.0s
config *.client.app[0].destPort 21
config *.client.app[1].destPort 80
config *.client.app[2].destPort 4000
config *.client.app[3].destPort 5000
config *.client.app[0].packetName "\"background\""
config *.client.app[1].packetName "\"best effort\""
config *.client.app[2].packetName "\"video\""
config *.client.app[3].packetName "\"voice\""
config *.server.numApps 4
config *.server.app[*].typename UdpSink
config *.server.app[0].localPort 21
config *.server.app[1].localPort 80
config *.server.app[2].localPort 4000
config *.server.app[3].localPort 5000
config *.client.app[0].messageLength 900B
config *.client.app[0].sendInterval normal(300us,10us)
config *.client.app[1].messageLength 900B
config *.client.app[1].sendInterval normal(250us,10us)
config *.client.app[2].messageLength 600B
config *.client.app[2].sendInterval normal(1ms,10us)
config *.client.app[3].messageLength 125B
config *.client.app[3].sendInterval normal(10ms,10us)
config *.client.app[*].recordScalar true
config *.client.app[*].recordVector true
config *.server.app[*].recordScalar true
config *.server.app[*].recordVector true

par QosShowcase.configurator typename "\"inet.networklayer.configurator.ipv4.Ipv4NetworkConfigurator\""
par QosShowcase.configurator minLinkWeight 0.001
par QosShowcase.configurator configureIsolatedNetworksSeparatly false
par QosShowcase.configurator config "<config>...</config> at content:1"
par QosShowcase.configurator assignAddresses true
par QosShowcase.configurator assignUniqueAddresses true
par QosShowcase.configurator assignDisjunctSubnetAddresses true
par QosShowcase.configurator addStaticRoutes true
par QosShowcase.configurator addDefaultRoutes true
par QosShowcase.configurator addSubnetRoutes true
par QosShowcase.configurator addDirectRoutes true
par QosShowcase.configurator optimizeRoutes true
par QosShowcase.configurator updateRoutes false
par QosShowcase.configurator dumpTopology false
par QosShowcase.configurator dumpLinks false
par QosShowcase.configurator dumpAddresses false
par QosShowcase.configurator dumpRoutes false
par QosShowcase.configurator dumpConfig "\"\""
par QosShowcase.ap.radioIn[0].channel typename "\"ned.IdealChannel\""
par QosShowcase.ap.interfaceTable typename "\"inet.networklayer.common.InterfaceTable\""
par QosShowcase.ap.interfaceTable displayAddresses false
par QosShowcase.ap.macTable typename "\"inet.linklayer.ethernet.common.MacForwardingTable\""
par QosShowcase.ap.macTable agingTime 120s
attr unit s
par QosShowcase.ap.macTable forwardingTable []
attr mutable ""
par QosShowcase.ap.macTable forwardingTableFile "\"\""
par QosShowcase.ap.macTable interfaceTableModule "\"QosShowcase.ap.interfaceTable\""
par QosShowcase.ap.macTable displayStringTextFormat "\"addr: %a\\nvlan: %v\""
par QosShowcase.ap.mobility typename "\"inet.mobility.static.StationaryMobility\""
par QosShowcase.ap.mobility subjectModule "\"^\""
par QosShowcase.ap.mobility coordinateSystemModule "\"\""
par QosShowcase.ap.mobility displayStringTextFormat "\"p: %p\\nv: %v\""
attr mutable ""
par QosShowcase.ap.mobility updateDisplayString true
par QosShowcase.ap.mobility constraintAreaMinX "-inf m"
attr unit m
par QosShowcase.ap.mobility constraintAreaMinY "-inf m"
attr unit m
par QosShowcase.ap.mobility constraintAreaMinZ "-inf m"
attr unit m
par QosShowcase.ap.mobility constraintAreaMaxX "inf m"
attr unit m
par QosShowcase.ap.mobility constraintAreaMaxY "inf m"
attr unit m
par QosShowcase.ap.mobility constraintAreaMaxZ "inf m"
attr unit m
par QosShowcase.ap.mobility initialX "nan m"
attr unit m
par QosShowcase.ap.mobility initialY "nan m"
attr unit m
par QosShowcase.ap.mobility initialZ 0m
attr unit m
par QosShowcase.ap.mobility initialLatitude "nan deg"
attr unit deg
par QosShowcase.ap.mobility initialLongitude "nan deg"
attr unit deg
par QosShowcase.ap.mobility initialAltitude 0m
attr unit m
par QosShowcase.ap.mobility initialHeading 0deg
attr unit deg
par QosShowcase.ap.mobility initialElevation 0deg
attr unit deg
par QosShowcase.ap.mobility initialBank 0deg
attr unit deg
par QosShowcase.ap.mobility initFromDisplayString true
par QosShowcase.ap.mobility updateFromDisplayString true
par QosShowcase.ap.li typename "\"inet.common.MessageDispatcher\""
par QosShowcase.ap.li displayStringTextFormat "\"processed %p pk (%l)\""
par QosShowcase.ap.li interfaceTableModule "\"QosShowcase.ap.interfaceTable\""
par QosShowcase.ap.li forwardServiceRegistration true
par QosShowcase.ap.li forwardProtocolRegistration true
par QosShowcase.ap.li interfaceMapping {}
par QosShowcase.ap.li serviceMapping {}
par QosShowcase.ap.li protocolMapping {}
par QosShowcase.ap.wlan[0].radioIn.channel typename "\"ned.IdealChannel\""
par QosShowcase.ap.wlan[0].llc.upperLayerOut.channel typename "\"ned.IdealChannel\""
par QosShowcase.ap.wlan[0].classifier.out.channel typename "\"ned.IdealChannel\""
par QosShowcase.ap.wlan[0].upperLayerIn.channel typename "\"ned.IdealChannel\""
par QosShowcase.ap.wlan[0].mib typename "\"inet.linklayer.ieee80211.mib.Ieee80211Mib\""
par QosShowcase.ap.wlan[0].llc typename "\"inet.linklayer.ieee80211.portal.Ieee80211Portal\""
par QosShowcase.ap.wlan[0].llc fcsMode "\"declared\""
attr enum declared,computed
par QosShowcase.ap.wlan[0].classifier typename "\"inet.linklayer.common.QosClassifier\""
par QosShowcase.ap.wlan[0].classifier ipProtocolUpMap "\"1 BE 58 BE\""
par QosShowcase.ap.wlan[0].classifier udpPortUpMap "\"21 BK 80 BE 4000 VI 5000 VO\""
par QosShowcase.ap.wlan[0].classifier tcpPortUpMap "\"21 BK 80 BE 4000 VI 5000 VO\""
par QosShowcase.ap.wlan[0].classifier defaultUp "\"BE\""
par QosShowcase.ap.wlan[0].mgmt typename "\"inet.linklayer.ieee80211.mgmt.Ieee80211MgmtAp\""
par QosShowcase.ap.wlan[0].mgmt ssid "\"SSID\""
par QosShowcase.ap.wlan[0].mgmt beaconInterval 0.1s
attr unit s
par QosShowcase.ap.wlan[0].mgmt numAuthSteps 4
par QosShowcase.ap.wlan[0].mgmt interfaceTableModule "\"QosShowcase.ap.interfaceTable\""
par QosShowcase.ap.wlan[0].mgmt radioModule "\"^.radio\""
par QosShowcase.ap.wlan[0].mgmt mibModule "\"QosShowcase.ap.wlan[0].mib\""
par QosShowcase.ap.wlan[0].mgmt macModule "\"QosShowcase.ap.wlan[0].mac\""
par QosShowcase.ap.wlan[0].mac.dcf.channelAccess.pendingQueue typename "\"inet.linklayer.ieee80211.mac.queue.PendingQueue\""
par QosShowcase.ap.wlan[0].mac.dcf.channelAccess.pendingQueue displayStringTextFormat "\"contains %p pk (%l) pushed %u\\npulled %o removed %r dropped %d\""
par QosShowcase.ap.wlan[0].mac.dcf.channelAccess.pendingQueue packetCapacity 100
par QosShowcase.ap.wlan[0].mac.dcf.channelAccess.pendingQueue dataCapacity -1b
attr unit b
par QosShowcase.ap.wlan[0].mac.dcf.channelAccess.pendingQueue dropperClass "\"inet::queueing::PacketAtCollectionEndDropper\""
par QosShowcase.ap.wlan[0].mac.dcf.channelAccess.pendingQueue comparatorClass "\"inet::ieee80211::MgmtOverDataComparator\""
par QosShowcase.ap.wlan[0].mac.dcf.channelAccess.pendingQueue bufferModule "\"\""
scalar QosShowcase.ap.wlan[0].mac.dcf.channelAccess.pendingQueue queueLength:last 0
attr autoWarmupFilter false
attr interpolationmode sample-hold
attr recordingmode last
attr source "warmup(atomic(constant0(packetPushEnded) + count(packetPushStarted) - count(packetPulled) - count(packetRemoved) - count(packetDropped)))"
attr title "queue length, last"
attr unit pk
scalar QosShowcase.ap.wlan[0].mac.dcf.channelAccess.pendingQueue queueLength:max 0
attr autoWarmupFilter false
attr interpolationmode sample-hold
attr recordingmode max
attr source "warmup(atomic(constant0(packetPushEnded) + count(packetPushStarted) - count(packetPulled) - count(packetRemoved) - count(packetDropped)))"
attr title "queue length, max"
attr unit pk
scalar QosShowcase.ap.wlan[0].mac.dcf.channelAccess.pendingQueue queueLength:timeavg 0
attr autoWarmupFilter false
attr interpolationmode sample-hold
attr recordingmode timeavg
attr source "warmup(atomic(constant0(packetPushEnded) + count(packetPushStarted) - count(packetPulled) - count(packetRemoved) - count(packetDropped)))"
attr title "queue length, timeavg"
attr unit pk
scalar QosShowcase.ap.wlan[0].mac.dcf.channelAccess.pendingQueue queueBitLength:last 0
attr autoWarmupFilter false
attr interpolationmode sample-hold
attr recordingmode last
attr source "warmup(atomic(constant0(packetPushEnded) + sum(packetLength(packetPushStarted)) - sum(packetLength(packetPulled)) - sum(packetLength(packetRemoved)) - sum(packetLength(packetDropped))))"
attr title "queue bit length, last"
attr unit b
scalar QosShowcase.ap.wlan[0].mac.dcf.channelAccess.pendingQueue queueBitLength:max 0
attr autoWarmupFilter false
attr interpolationmode sample-hold
attr recordingmode max
attr source "warmup(atomic(constant0(packetPushEnded) + sum(packetLength(packetPushStarted)) - sum(packetLength(packetPulled)) - sum(packetLength(packetRemoved)) - sum(packetLength(packetDropped))))"
attr title "queue bit length, max"
attr unit b
scalar QosShowcase.ap.wlan[0].mac.dcf.channelAccess.pendingQueue queueBitLength:timeavg 0
attr autoWarmupFilter false
attr interpolationmode sample-hold
attr recordingmode timeavg
attr source "warmup(atomic(constant0(packetPushEnded) + sum(packetLength(packetPushStarted)) - sum(packetLength(packetPulled)) - sum(packetLength(packetRemoved)) - sum(packetLength(packetDropped))))"
attr title "queue bit length, timeavg"
attr unit b
statistic QosShowcase.ap.wlan[0].mac.dcf.channelAccess.pendingQueue queueingTime:histogram
field count 0
field mean nan
field stddev nan
field min nan
field max nan
field sum 0
field sqrsum 0
attr interpolationmode none
attr recordingmode histogram
attr source queueingTime(packetPulled)
attr title "queueing times"
attr unit s
bin	-inf	0
bin	0	0
bin	1	0
scalar QosShowcase.ap.wlan[0].mac.dcf.channelAccess.pendingQueue outgoingPackets:count 0
attr recordingmode count
attr source packetPulled
attr title "outgoing packets, count"
attr unit pk
scalar QosShowcase.ap.wlan[0].mac.dcf.channelAccess.pendingQueue outgoingPacketLengths:sum 0
attr interpolationmode none
attr recordingmode sum
attr source packetLength(packetPulled)
attr title "outgoing packet lengths, sum"
attr unit b
statistic QosShowcase.ap.wlan[0].mac.dcf.channelAccess.pendingQueue outgoingPacketLengths:histogram
field count 0
field mean nan
field stddev nan
field min nan
field max nan
field sum 0
field sqrsum 0
attr interpolationmode none
attr recordingmode histogram
attr source packetLength(packetPulled)
attr title "outgoing packet lengths"
attr unit b
bin	-inf	0
bin	0	0
bin	1	0
statistic QosShowcase.ap.wlan[0].mac.dcf.channelAccess.pendingQueue flowQueueingTime:histogram
field count 0
field mean nan
field stddev nan
field min nan
field max nan
field sum 0
field sqrsum 0
attr interpolationmode none
attr recordingmode histogram
attr source queueingTime(demuxFlow(packetPulled))
attr title "flow queueing times"
attr unit s
bin	-inf	0
bin	0	0
bin	1	0
scalar QosShowcase.ap.wlan[0].mac.dcf.channelAccess.pendingQueue incomingPackets:count 0
attr recordingmode count
attr source packetPushStarted
attr title "incoming packets, count"
attr unit pk
scalar QosShowcase.ap.wlan[0].mac.dcf.channelAccess.pendingQueue incomingPacketLengths:sum 0
attr interpolationmode none
attr recordingmode sum
attr source packetLength(packetPushStarted)
attr title "incoming packet lengths, sum"
attr unit b
statistic QosShowcase.ap.wlan[0].mac.dcf.channelAccess.pendingQueue incomingPacketLengths:histogram
field count 0
field mean nan
field stddev nan
field min nan
field max nan
field sum 0
field sqrsum 0
attr interpolationmode none
attr recordingmode histogram
attr source packetLength(packetPushStarted)
attr title "incoming packet lengths"
attr unit b
bin	-inf	0
bin	0	0
bin	1	0
scalar QosShowcase.ap.wlan[0].mac.dcf.channelAccess.pendingQueue droppedPacketsQueueOverflow:count 0
attr interpolationmode none
attr recordingmode count
attr source packetDropReasonIsQueueOverflow(packetDropped)
attr title "dropped packets: queue overflow, count"
attr unit pk
scalar QosShowcase.ap.wlan[0].mac.dcf.channelAccess.pendingQueue droppedPacketLengthsQueueOverflow:sum 0
attr interpolationmode none
attr recordingmode sum
attr source packetLength(packetDropReasonIsQueueOverflow(packetDropped))
attr title "dropped packet lengths: queue overflow, sum"
attr unit b
par QosShowcase.ap.wlan[0].mac.dcf.channelAccess.inProgressFrames typename "\"inet.linklayer.ieee80211.mac.queue.InProgressFrames\""
par QosShowcase.ap.wlan[0].mac.dcf.channelAccess.inProgressFrames pendingQueueModule "\"^.pendingQueue\""
par QosShowcase.ap.wlan[0].mac.dcf.channelAccess.inProgressFrames originatorMacDataServiceModule "\"^.^.originatorMacDataService\""
par QosShowcase.ap.wlan[0].mac.dcf.channelAccess.inProgressFrames ackHandlerModule "\"^.^.ackHandler\""
statistic QosShowcase.ap.wlan[0].mac.dcf.channelAccess.inProgressFrames queueingTime:histogram
field count 0
field mean nan
field stddev nan
field min nan
field max nan
field sum 0
field sqrsum 0
attr interpolationmode none
attr recordingmode histogram
attr source queueingTime(packetDequeued)
attr title "queueing times"
bin	-inf	0
bin	0	0
bin	1	0
scalar QosShowcase.ap.wlan[0].mac.dcf.channelAccess.inProgressFrames queueLength:max 0
attr autoWarmupFilter false
attr interpolationmode sample-hold
attr recordingmode max
attr source "warmup(count(packetEnqueued) - count(packetDequeued))"
attr title "queue length, max"
scalar QosShowcase.ap.wlan[0].mac.dcf.channelAccess.inProgressFrames queueLength:timeavg 0
attr autoWarmupFilter false
attr interpolationmode sample-hold
attr recordingmode timeavg
attr source "warmup(count(packetEnqueued) - count(packetDequeued))"
attr title "queue length, timeavg"
par QosShowcase.ap.wlan[0].mac.dcf.channelAccess.contention typename "\"inet.linklayer.ieee80211.mac.contention.Contention\""
par QosShowcase.ap.wlan[0].mac.dcf.channelAccess.contention initialChannelBusy true
par QosShowcase.ap.wlan[0].mac.dcf.channelAccess.contention backoffOptimization true
scalar QosShowcase.ap.wlan[0].mac.dcf.channelAccess.contention channelAccessGranted:count 0
attr recordingmode count
attr title "channel access granted, count"
scalar QosShowcase.ap.wlan[0].mac.dcf.channelAccess.contention stateChanged:count 574
attr enum IDLE,DEFER,IFS_AND_BACKOFF
attr interpolationmode none
attr recordingmode count
attr title "contention state changed, count"
attr type enum
par QosShowcase.ap.wlan[0].mac.dcf.channelAccess typename "\"inet.linklayer.ieee80211.mac.channelaccess.Dcaf\""
par QosShowcase.ap.wlan[0].mac.dcf.channelAccess difsn -1
par QosShowcase.ap.wlan[0].mac.dcf.channelAccess cwMin -1
par QosShowcase.ap.wlan[0].mac.dcf.channelAccess cwMax -1
par QosShowcase.ap.wlan[0].mac.dcf.channelAccess rxModule "\"^.^.rx\""
scalar QosShowcase.ap.wlan[0].mac.dcf.channelAccess channelOwnershipChanged:count 0
attr interpolationmode sample-hold
attr recordingmode count
attr title "channel ownership, count"
par QosShowcase.ap.wlan[0].mac.dcf.originatorMacDataService.fragmentationPolicy typename "\"inet.linklayer.ieee80211.mac.fragmentation.BasicFragmentationPolicy\""
par QosShowcase.ap.wlan[0].mac.dcf.originatorMacDataService.fragmentationPolicy fragmentationThreshold 1500B
attr unit B
par QosShowcase.ap.wlan[0].mac.dcf.originatorMacDataService typename "\"inet.linklayer.ieee80211.mac.originator.OriginatorMacDataService\""
scalar QosShowcase.ap.wlan[0].mac.dcf.originatorMacDataService packetAggregated:count 0
attr recordingmode count
attr title "packets aggregated, count"
scalar QosShowcase.ap.wlan[0].mac.dcf.originatorMacDataService packetFragmented:count 0
attr recordingmode count
attr title "packets fragmented, count"
par QosShowcase.ap.wlan[0].mac.dcf.recipientMacDataService typename "\"inet.linklayer.ieee80211.mac.recipient.RecipientMacDataService\""
scalar QosShowcase.ap.wlan[0].mac.dcf.recipientMacDataService packetDropDuplicateDetected:count 0
attr interpolationmode none
attr recordingmode count
attr source packetDropReasonIsDuplicateDetected(packetDropped)
attr title "packet drops: duplicate detected, count"
scalar QosShowcase.ap.wlan[0].mac.dcf.recipientMacDataService packetDropDuplicateDetected:sum(packetBytes) 0
attr interpolationmode none
attr recordingmode sum(packetBytes)
attr source packetDropReasonIsDuplicateDetected(packetDropped)
attr title "packet drops: duplicate detected, sum(packetBytes)"
scalar QosShowcase.ap.wlan[0].mac.dcf.recipientMacDataService packetDeaggregated:count 0
attr recordingmode count
attr title "packets deaggregated, count"
scalar QosShowcase.ap.wlan[0].mac.dcf.recipientMacDataService packetDefragmented:count 0
attr recordingmode count
attr title "packets defragmented, count"
par QosShowcase.ap.wlan[0].mac.dcf.rateSelection typename "\"inet.linklayer.ieee80211.mac.rateselection.RateSelection\""
par QosShowcase.ap.wlan[0].mac.dcf.rateSelection rateControlModule "\"^.rateControl\""
par QosShowcase.ap.wlan[0].mac.dcf.rateSelection multicastFrameBitrate -1bps
attr unit bps
par QosShowcase.ap.wlan[0].mac.dcf.rateSelection responseAckFrameBitrate -1bps
attr unit bps
par QosShowcase.ap.wlan[0].mac.dcf.rateSelection responseCtsFrameBitrate -1bps
attr unit bps
par QosShowcase.ap.wlan[0].mac.dcf.rateSelection dataFrameBitrate 5.4e+07bps
attr unit bps
par QosShowcase.ap.wlan[0].mac.dcf.rateSelection dataFrameBandwidth "nan Hz"
attr unit Hz
par QosShowcase.ap.wlan[0].mac.dcf.rateSelection dataFrameNumSpatialStreams -1
par QosShowcase.ap.wlan[0].mac.dcf.rateSelection mgmtFrameBitrate -1bps
attr unit bps
par QosShowcase.ap.wlan[0].mac.dcf.rateSelection controlFrameBitrate -1bps
attr unit bps
par QosShowcase.ap.wlan[0].mac.dcf.recoveryProcedure typename "\"inet.linklayer.ieee80211.mac.originator.NonQosRecoveryProcedure\""
par QosShowcase.ap.wlan[0].mac.dcf.recoveryProcedure cwCalculatorModule "\"^.channelAccess\""
par QosShowcase.ap.wlan[0].mac.dcf.recoveryProcedure rtsPolicyModule "\"^.rtsPolicy\""
par QosShowcase.ap.wlan[0].mac.dcf.recoveryProcedure shortRetryLimit 7
par QosShowcase.ap.wlan[0].mac.dcf.recoveryProcedure longRetryLimit 4
scalar QosShowcase.ap.wlan[0].mac.dcf.recoveryProcedure retryLimitReached:count 0
attr recordingmode count
attr title "retry limit reached, count"
par QosShowcase.ap.wlan[0].mac.dcf.originatorProtectionMechanism typename "\"inet.linklayer.ieee80211.mac.protectionmechanism.OriginatorProtectionMechanism\""
par QosShowcase.ap.wlan[0].mac.dcf.originatorProtectionMechanism rateSelectionModule "\"^.rateSelection\""
par QosShowcase.ap.wlan[0].mac.dcf.ackHandler typename "\"inet.linklayer.ieee80211.mac.originator.AckHandler\""
par QosShowcase.ap.wlan[0].mac.dcf.originatorAckPolicy typename "\"inet.linklayer.ieee80211.mac.originator.OriginatorAckPolicy\""
par QosShowcase.ap.wlan[0].mac.dcf.originatorAckPolicy rateSelectionModule "\"^.rateSelection\""
par QosShowcase.ap.wlan[0].mac.dcf.originatorAckPolicy ackTimeout -1s
attr unit s
par QosShowcase.ap.wlan[0].mac.dcf.recipientAckPolicy typename "\"inet.linklayer.ieee80211.mac.recipient.RecipientAckPolicy\""
par QosShowcase.ap.wlan[0].mac.dcf.recipientAckPolicy rateSelectionModule "\"^.rateSelection\""
par QosShowcase.ap.wlan[0].mac.dcf.rtsPolicy typename "\"inet.linklayer.ieee80211.mac.originator.RtsPolicy\""
par QosShowcase.ap.wlan[0].mac.dcf.rtsPolicy rateSelectionModule "\"^.rateSelection\""
par QosShowcase.ap.wlan[0].mac.dcf.rtsPolicy ctsTimeout -1s
attr unit s
par QosShowcase.ap.wlan[0].mac.dcf.rtsPolicy rtsThreshold 2346B
attr unit B
par QosShowcase.ap.wlan[0].mac.dcf.ctsPolicy typename "\"inet.linklayer.ieee80211.mac.recipient.CtsPolicy\""
par QosShowcase.ap.wlan[0].mac.dcf.ctsPolicy rxModule "\"^.^.rx\""
par QosShowcase.ap.wlan[0].mac.dcf.ctsPolicy rateSelectionModule "\"^.rateSelection\""
par QosShowcase.ap.wlan[0].mac.dcf typename "\"inet.linklayer.ieee80211.mac.coordinationfunction.Dcf\""
par QosShowcase.ap.wlan[0].mac.dcf rxModule "\"^.rx\""
par QosShowcase.ap.wlan[0].mac.dcf txModule "\"^.tx\""
scalar QosShowcase.ap.wlan[0].mac.dcf packetReceivedFromPeer:count 0
attr interpolationmode none
attr recordingmode count
attr title "packets received, count"
scalar QosShowcase.ap.wlan[0].mac.dcf packetReceivedFromPeer:sum(packetBytes) 0
attr interpolationmode none
attr recordingmode sum(packetBytes)
attr title "packets received, sum(packetBytes)"
scalar QosShowcase.ap.wlan[0].mac.dcf packetReceivedFromPeerUnicast:count 0
attr interpolationmode none
attr recordingmode count
attr source ieee80211Unicast(packetReceivedFromPeer)
attr title "packets received: unicast, count"
scalar QosShowcase.ap.wlan[0].mac.dcf packetReceivedFromPeerUnicast:sum(packetBytes) 0
attr interpolationmode none
attr recordingmode sum(packetBytes)
attr source ieee80211Unicast(packetReceivedFromPeer)
attr title "packets received: unicast, sum(packetBytes)"
scalar QosShowcase.ap.wlan[0].mac.dcf packetReceivedFromPeerMulticast:count 0
attr interpolationmode none
attr recordingmode count
attr source ieee80211Multicast(packetReceivedFromPeer)
attr title "packets received: multicast, count"
scalar QosShowcase.ap.wlan[0].mac.dcf packetReceivedFromPeerMulticast:sum(packetBytes) 0
attr interpolationmode none
attr recordingmode sum(packetBytes)
attr source ieee80211Multicast(packetReceivedFromPeer)
attr title "packets received: multicast, sum(packetBytes)"
scalar QosShowcase.ap.wlan[0].mac.dcf packetReceivedFromPeerBroadcast:count 0
attr interpolationmode none
attr recordingmode count
attr source ieee80211Broadcast(packetReceivedFromPeer)
attr title "packets received: broadcast, count"
scalar QosShowcase.ap.wlan[0].mac.dcf packetReceivedFromPeerBroadcast:sum(packetBytes) 0
attr interpolationmode none
attr recordingmode sum(packetBytes)
attr source ieee80211Broadcast(packetReceivedFromPeer)
attr title "packets received: broadcast, sum(packetBytes)"
scalar QosShowcase.ap.wlan[0].mac.dcf packetReceivedFromPeerWithRetry:count 0
attr interpolationmode none
attr recordingmode count
attr source ieee80211Retry(packetReceivedFromPeer)
attr title "packets received: with retry, count"
scalar QosShowcase.ap.wlan[0].mac.dcf packetReceivedFromPeerWithRetry:sum(packetBytes) 0
attr interpolationmode none
attr recordingmode sum(packetBytes)
attr source ieee80211Retry(packetReceivedFromPeer)
attr title "packets received: with retry, sum(packetBytes)"
scalar QosShowcase.ap.wlan[0].mac.dcf packetReceivedFromPeerWithoutRetry:count 0
attr interpolationmode none
attr recordingmode count
attr source ieee80211NotRetry(packetReceivedFromPeer)
attr title "packets received: without retry, count"
scalar QosShowcase.ap.wlan[0].mac.dcf packetReceivedFromPeerWithoutRetry:sum(packetBytes) 0
attr interpolationmode none
attr recordingmode sum(packetBytes)
attr source ieee80211NotRetry(packetReceivedFromPeer)
attr title "packets received: without retry, sum(packetBytes)"
scalar QosShowcase.ap.wlan[0].mac.dcf packetSentToPeer:count 0
attr interpolationmode none
attr recordingmode count
attr title "packets sent, count"
scalar QosShowcase.ap.wlan[0].mac.dcf packetSentToPeer:sum(packetBytes) 0
attr interpolationmode none
attr recordingmode sum(packetBytes)
attr title "packets sent, sum(packetBytes)"
scalar QosShowcase.ap.wlan[0].mac.dcf packetSentToPeerUnicast:count 0
attr interpolationmode none
attr recordingmode count
attr source ieee80211Unicast(packetSentToPeer)
attr title "packets sent: unicast, count"
scalar QosShowcase.ap.wlan[0].mac.dcf packetSentToPeerUnicast:sum(packetBytes) 0
attr interpolationmode none
attr recordingmode sum(packetBytes)
attr source ieee80211Unicast(packetSentToPeer)
attr title "packets sent: unicast, sum(packetBytes)"
scalar QosShowcase.ap.wlan[0].mac.dcf packetSentToPeerMulticast:count 0
attr interpolationmode none
attr recordingmode count
attr source ieee80211Multicast(packetSentToPeer)
attr title "packets sent: multicast, count"
scalar QosShowcase.ap.wlan[0].mac.dcf packetSentToPeerMulticast:sum(packetBytes) 0
attr interpolationmode none
attr recordingmode sum(packetBytes)
attr source ieee80211Multicast(packetSentToPeer)
attr title "packets sent: multicast, sum(packetBytes)"
scalar QosShowcase.ap.wlan[0].mac.dcf packetSentToPeerBroadcast:count 0
attr interpolationmode none
attr recordingmode count
attr source ieee80211Broadcast(packetSentToPeer)
attr title "packets sent: broadcast , count"
scalar QosShowcase.ap.wlan[0].mac.dcf packetSentToPeerBroadcast:sum(packetBytes) 0
attr interpolationmode none
attr recordingmode sum(packetBytes)
attr source ieee80211Broadcast(packetSentToPeer)
attr title "packets sent: broadcast , sum(packetBytes)"
scalar QosShowcase.ap.wlan[0].mac.dcf packetSentToPeerWithRetry:count 0
attr interpolationmode none
attr recordingmode count
attr source ieee80211Retry(packetSentToPeer)
attr title "packets sent: with retry, count"
scalar QosShowcase.ap.wlan[0].mac.dcf packetSentToPeerWithRetry:sum(packetBytes) 0
attr interpolationmode none
attr recordingmode sum(packetBytes)
attr source ieee80211Retry(packetSentToPeer)
attr title "packets sent: with retry, sum(packetBytes)"
scalar QosShowcase.ap.wlan[0].mac.dcf packetSentToPeerWithoutRetry:count 0
attr interpolationmode none
attr recordingmode count
attr source ieee80211NotRetry(packetSentToPeer)
attr title "packets sent: without retry, count"
scalar QosShowcase.ap.wlan[0].mac.dcf packetSentToPeerWithoutRetry:sum(packetBytes) 0
attr interpolationmode none
attr recordingmode sum(packetBytes)
attr source ieee80211NotRetry(packetSentToPeer)
attr title "packets sent: without retry, sum(packetBytes)"
scalar QosShowcase.ap.wlan[0].mac.dcf packetDrop:count 0
attr interpolationmode none
attr recordingmode count
attr source packetDropped
attr title "packet drops, count"
scalar QosShowcase.ap.wlan[0].mac.dcf packetDrop:sum(packetBytes) 0
attr interpolationmode none
attr recordingmode sum(packetBytes)
attr source packetDropped
attr title "packet drops, sum(packetBytes)"
scalar QosShowcase.ap.wlan[0].mac.dcf packetDropNotAddressedToUs:count 0
attr interpolationmode none
attr recordingmode count
attr source packetDropReasonIsNotAddressedToUs(packetDropped)
attr title "packet drops: not addressed to us, count"
scalar QosShowcase.ap.wlan[0].mac.dcf packetDropNotAddressedToUs:sum(packetBytes) 0
attr interpolationmode none
attr recordingmode sum(packetBytes)
attr source packetDropReasonIsNotAddressedToUs(packetDropped)
attr title "packet drops: not addressed to us, sum(packetBytes)"
scalar QosShowcase.ap.wlan[0].mac.dcf packetDropQueueOverflow:count 0
attr interpolationmode none
attr recordingmode count
attr source packetDropReasonIsQueueOverflow(packetDropped)
attr title "packet drops: queue overflow, count"
scalar QosShowcase.ap.wlan[0].mac.dcf packetDropQueueOverflow:sum(packetBytes) 0
attr interpolationmode none
attr recordingmode sum(packetBytes)
attr source packetDropReasonIsQueueOverflow(packetDropped)
attr title "packet drops: queue overflow, sum(packetBytes)"
scalar QosShowcase.ap.wlan[0].mac.dcf packetDropRetryLimitReached:count 0
attr interpolationmode none
attr recordingmode count
attr source packetDropReasonIsRetryLimitReached(packetDropped)
attr title "packet drops: retry limit reached, count"
scalar QosShowcase.ap.wlan[0].mac.dcf packetDropRetryLimitReached:sum(packetBytes) 0
attr interpolationmode none
attr recordingmode sum(packetBytes)
attr source packetDropReasonIsRetryLimitReached(packetDropped)
attr title "packet drops: retry limit reached, sum(packetBytes)"
scalar QosShowcase.ap.wlan[0].mac.dcf linkBroken:count 0
attr interpolationmode none
attr recordingmode count
attr title "link breaks, count"
scalar QosShowcase.ap.wlan[0].mac.dcf frameSequenceFinished:count 0
attr recordingmode count
attr title "finished frame sequences, count"
statistic QosShowcase.ap.wlan[0].mac.dcf frameSequenceDuration:histogram
field count 0
field mean nan
field stddev nan
field min nan
field max nan
field sum 0
field sqrsum 0
attr recordingmode histogram
attr source frameSequenceDuration(frameSequenceFinished)
attr title "frame sequence durations"
bin	-inf	0
bin	0	0
bin	1	0
statistic QosShowcase.ap.wlan[0].mac.dcf frameSequenceNumPackets:histogram
field count 0
field mean nan
field stddev nan
field min nan
field max nan
field sum 0
field sqrsum 0
attr recordingmode histogram
attr source frameSequenceNumPackets(frameSequenceFinished)
attr title "frame sequences: number of packets"
bin	-inf	0
bin	0	0
bin	1	0
par QosShowcase.ap.wlan[0].mac.hcf.edca.edcaf[0].pendingQueue typename "\"inet.linklayer.ieee80211.mac.queue.PendingQueue\""
par QosShowcase.ap.wlan[0].mac.hcf.edca.edcaf[0].pendingQueue displayStringTextFormat "\"contains %p pk (%l) pushed %u\\npulled %o removed %r dropped %d\""
par QosShowcase.ap.wlan[0].mac.hcf.edca.edcaf[0].pendingQueue packetCapacity 100
par QosShowcase.ap.wlan[0].mac.hcf.edca.edcaf[0].pendingQueue dataCapacity -1b
attr unit b
par QosShowcase.ap.wlan[0].mac.hcf.edca.edcaf[0].pendingQueue dropperClass "\"inet::queueing::PacketAtCollectionEndDropper\""
par QosShowcase.ap.wlan[0].mac.hcf.edca.edcaf[0].pendingQueue comparatorClass "\"inet::ieee80211::MgmtOverDataComparator\""
par QosShowcase.ap.wlan[0].mac.hcf.edca.edcaf[0].pendingQueue bufferModule "\"\""
scalar QosShowcase.ap.wlan[0].mac.hcf.edca.edcaf[0].pendingQueue queueLength:last 4
attr autoWarmupFilter false
attr interpolationmode sample-hold
attr recordingmode last
attr source "warmup(atomic(constant0(packetPushEnded) + count(packetPushStarted) - count(packetPulled) - count(packetRemoved) - count(packetDropped)))"
attr title "queue length, last"
attr unit pk
scalar QosShowcase.ap.wlan[0].mac.hcf.edca.edcaf[0].pendingQueue queueLength:max 4
attr autoWarmupFilter false
attr interpolationmode sample-hold
attr recordingmode max
attr source "warmup(atomic(constant0(packetPushEnded) + count(packetPushStarted) - count(packetPulled) - count(packetRemoved) - count(packetDropped)))"
attr title "queue length, max"
attr unit pk
scalar QosShowcase.ap.wlan[0].mac.hcf.edca.edcaf[0].pendingQueue queueLength:timeavg 0.022121985351072
attr autoWarmupFilter false
attr interpolationmode sample-hold
attr recordingmode timeavg
attr source "warmup(atomic(constant0(packetPushEnded) + count(packetPushStarted) - count(packetPulled) - count(packetRemoved) - count(packetDropped)))"
attr title "queue length, timeavg"
attr unit pk
scalar QosShowcase.ap.wlan[0].mac.hcf.edca.edcaf[0].pendingQueue queueBitLength:last 30912
attr autoWarmupFilter false
attr interpolationmode sample-hold
attr recordingmode last
attr source "warmup(atomic(constant0(packetPushEnded) + sum(packetLength(packetPushStarted)) - sum(packetLength(packetPulled)) - sum(packetLength(packetRemoved)) - sum(packetLength(packetDropped))))"
attr title "queue bit length, last"
attr unit b
scalar QosShowcase.ap.wlan[0].mac.hcf.edca.edcaf[0].pendingQueue queueBitLength:max 30912
attr autoWarmupFilter false
attr interpolationmode sample-hold
attr recordingmode max
attr source "warmup(atomic(constant0(packetPushEnded) + sum(packetLength(packetPushStarted)) - sum(packetLength(packetPulled)) - sum(packetLength(packetRemoved)) - sum(packetLength(packetDropped))))"
attr title "queue bit length, max"
attr unit b
scalar QosShowcase.ap.wlan[0].mac.hcf.edca.edcaf[0].pendingQueue queueBitLength:timeavg 170.95870279308
attr autoWarmupFilter false
attr interpolationmode sample-hold
attr recordingmode timeavg
attr source "warmup(atomic(constant0(packetPushEnded) + sum(packetLength(packetPushStarted)) - sum(packetLength(packetPulled)) - sum(packetLength(packetRemoved)) - sum(packetLength(packetDropped))))"
attr title "queue bit length, timeavg"
attr unit b
statistic QosShowcase.ap.wlan[0].mac.hcf.edca.edcaf[0].pendingQueue queueingTime:histogram
field count 0
field mean nan
field stddev nan
field min nan
field max nan
field sum 0
field sqrsum 0
attr interpolationmode none
attr recordingmode histogram
attr source queueingTime(packetPulled)
attr title "queueing times"
attr unit s
bin	-inf	0
bin	0	0
bin	1	0
scalar QosShowcase.ap.wlan[0].mac.hcf.edca.edcaf[0].pendingQueue outgoingPackets:count 0
attr recordingmode count
attr source packetPulled
attr title "outgoing packets, count"
attr unit pk
scalar QosShowcase.ap.wlan[0].mac.hcf.edca.edcaf[0].pendingQueue outgoingPacketLengths:sum 0
attr interpolationmode none
attr recordingmode sum
attr source packetLength(packetPulled)
attr title "outgoing packet lengths, sum"
attr unit b
statistic QosShowcase.ap.wlan[0].mac.hcf.edca.edcaf[0].pendingQueue outgoingPacketLengths:histogram
field count 0
field mean nan
field stddev nan
field min nan
field max nan
field sum 0
field sqrsum 0
attr interpolationmode none
attr recordingmode histogram
attr source packetLength(packetPulled)
attr title "outgoing packet lengths"
attr unit b
bin	-inf	0
bin	0	0
bin	1	0
statistic QosShowcase.ap.wlan[0].mac.hcf.edca.edcaf[0].pendingQueue flowQueueingTime:histogram
field count 0
field mean nan
field stddev nan
field min nan
field max nan
field sum 0
field sqrsum 0
attr interpolationmode none
attr recordingmode histogram
attr source queueingTime(demuxFlow(packetPulled))
attr title "flow queueing times"
attr unit s
bin	-inf	0
bin	0	0
bin	1	0
scalar QosShowcase.ap.wlan[0].mac.hcf.edca.edcaf[0].pendingQueue incomingPackets:count 4
attr recordingmode count
attr source packetPushStarted
attr title "incoming packets, count"
attr unit pk
scalar QosShowcase.ap.wlan[0].mac.hcf.edca.edcaf[0].pendingQueue incomingPacketLengths:sum 30912
attr interpolationmode none
attr recordingmode sum
attr source packetLength(packetPushStarted)
attr title "incoming packet lengths, sum"
attr unit b
statistic QosShowcase.ap.wlan[0].mac.hcf.edca.edcaf[0].pendingQueue incomingPacketLengths:histogram
field count 4
field mean 7728
field stddev 0
field min 7728
field max 7728
field sum 30912
field sqrsum 238887936
attr interpolationmode none
attr recordingmode histogram
attr source packetLength(packetPushStarted)
attr title "incoming packet lengths"
attr unit b
bin	-inf	0
bin	7727	0
bin	7728	4
bin	7729	0
scalar QosShowcase.ap.wlan[0].mac.hcf.edca.edcaf[0].pendingQueue droppedPacketsQueueOverflow:count 0
attr interpolationmode none
attr recordingmode count
attr source packetDropReasonIsQueueOverflow(packetDropped)
attr title "dropped packets: queue overflow, count"
attr unit pk
scalar QosShowcase.ap.wlan[0].mac.hcf.edca.edcaf[0].pendingQueue droppedPacketLengthsQueueOverflow:sum 0
attr interpolationmode none
attr recordingmode sum
attr source packetLength(packetDropReasonIsQueueOverflow(packetDropped))
attr title "dropped packet lengths: queue overflow, sum"
attr unit b
par QosShowcase.ap.wlan[0].mac.hcf.edca.edcaf[0].inProgressFrames typename "\"inet.linklayer.ieee80211.mac.queue.InProgressFrames\""
par QosShowcase.ap.wlan[0].mac.hcf.edca.edcaf[0].inProgressFrames pendingQueueModule "\"^.pendingQueue\""
par QosShowcase.ap.wlan[0].mac.hcf.edca.edcaf[0].inProgressFrames originatorMacDataServiceModule "\"^.^.^.originatorMacDataService\""
par QosShowcase.ap.wlan[0].mac.hcf.edca.edcaf[0].inProgressFrames ackHandlerModule "\"^.ackHandler\""
statistic QosShowcase.ap.wlan[0].mac.hcf.edca.edcaf[0].inProgressFrames queueingTime:histogram
field count 0
field mean nan
field stddev nan
field min nan
field max nan
field sum 0
field sqrsum 0
attr interpolationmode none
attr recordingmode histogram
attr source queueingTime(packetDequeued)
attr title "queueing times"
bin	-inf	0
bin	0	0
bin	1	0
scalar QosShowcase.ap.wlan[0].mac.hcf.edca.edcaf[0].inProgressFrames queueLength:max 0
attr autoWarmupFilter false
attr interpolationmode sample-hold
attr recordingmode max
attr source "warmup(count(packetEnqueued) - count(packetDequeued))"
attr title "queue length, max"
scalar QosShowcase.ap.wlan[0].mac.hcf.edca.edcaf[0].inProgressFrames queueLength:timeavg 0
attr autoWarmupFilter false
attr interpolationmode sample-hold
attr recordingmode timeavg
attr source "warmup(count(packetEnqueued) - count(packetDequeued))"
attr title "queue length, timeavg"
par QosShowcase.ap.wlan[0].mac.hcf.edca.edcaf[0].contention typename "\"inet.linklayer.ieee80211.mac.contention.Contention\""
par QosShowcase.ap.wlan[0].mac.hcf.edca.edcaf[0].contention initialChannelBusy true
par QosShowcase.ap.wlan[0].mac.hcf.edca.edcaf[0].contention backoffOptimization true
scalar QosShowcase.ap.wlan[0].mac.hcf.edca.edcaf[0].contention channelAccessGranted:count 0
attr recordingmode count
attr title "channel access granted, count"
scalar QosShowcase.ap.wlan[0].mac.hcf.edca.edcaf[0].contention stateChanged:count 576
attr enum IDLE,DEFER,IFS_AND_BACKOFF
attr interpolationmode none
attr recordingmode count
attr title "contention state changed, count"
attr type enum
par QosShowcase.ap.wlan[0].mac.hcf.edca.edcaf[0].ackHandler typename "\"inet.linklayer.ieee80211.mac.originator.QosAckHandler\""
par QosShowcase.ap.wlan[0].mac.hcf.edca.edcaf[0].txopProcedure typename "\"inet.linklayer.ieee80211.mac.originator.TxopProcedure\""
par QosShowcase.ap.wlan[0].mac.hcf.edca.edcaf[0].txopProcedure txopLimit -1s
attr unit s
scalar QosShowcase.ap.wlan[0].mac.hcf.edca.edcaf[0].txopProcedure txopEnded:count 0
attr interpolationmode none
attr recordingmode count
attr source txopEnded
attr title "txops ended, count"
statistic QosShowcase.ap.wlan[0].mac.hcf.edca.edcaf[0].txopProcedure txopDuration:histogram
field count 0
field mean nan
field stddev nan
field min nan
field max nan
field sum 0
field sqrsum 0
attr interpolationmode none
attr recordingmode histogram
attr source txopDuration(txopEnded)
attr title "txop duration"
bin	-inf	0
bin	0	0
bin	1	0
par QosShowcase.ap.wlan[0].mac.hcf.edca.edcaf[0].recoveryProcedure typename "\"inet.linklayer.ieee80211.mac.originator.QosRecoveryProcedure\""
par QosShowcase.ap.wlan[0].mac.hcf.edca.edcaf[0].recoveryProcedure cwCalculatorModule "\"^\""
par QosShowcase.ap.wlan[0].mac.hcf.edca.edcaf[0].recoveryProcedure rtsPolicyModule "\"^.^.^.rtsPolicy\""
par QosShowcase.ap.wlan[0].mac.hcf.edca.edcaf[0].recoveryProcedure shortRetryLimit 7
par QosShowcase.ap.wlan[0].mac.hcf.edca.edcaf[0].recoveryProcedure longRetryLimit 4
scalar QosShowcase.ap.wlan[0].mac.hcf.edca.edcaf[0].recoveryProcedure retryLimitReached:count 0
attr recordingmode count
attr title "retry limit reached, count"
par QosShowcase.ap.wlan[0].mac.hcf.edca.edcaf[0] typename "\"inet.linklayer.ieee80211.mac.channelaccess.Edcaf\""
par QosShowcase.ap.wlan[0].mac.hcf.edca.edcaf[0] rxModule "\"^.^.^.rx\""
par QosShowcase.ap.wlan[0].mac.hcf.edca.edcaf[0] collisionControllerModule "\"^.collisionController\""
par QosShowcase.ap.wlan[0].mac.hcf.edca.edcaf[0] originatorMacDataServiceModule "\"^.^.originatorMacDataService\""
par QosShowcase.ap.wlan[0].mac.hcf.edca.edcaf[0] accessCategory "\"AC_BK\""
attr enum AC_BK,AC_BE,AC_VI,AC_VO
par QosShowcase.ap.wlan[0].mac.hcf.edca.edcaf[0] aifsn -1
par QosShowcase.ap.wlan[0].mac.hcf.edca.edcaf[0] cwMin -1
par QosShowcase.ap.wlan[0].mac.hcf.edca.edcaf[0] cwMax -1
scalar QosShowcase.ap.wlan[0].mac.hcf.edca.edcaf[0] packetSentToPeer:count 0
attr interpolationmode none
attr recordingmode count
attr title "packets sent, count"
scalar QosShowcase.ap.wlan[0].mac.hcf.edca.edcaf[0] packetSentToPeer:sum(packetBytes) 0
attr interpolationmode none
attr recordingmode sum(packetBytes)
attr title "packets sent, sum(packetBytes)"
scalar QosShowcase.ap.wlan[0].mac.hcf.edca.edcaf[0] packetSentToPeerUnicast:count 0
attr interpolationmode none
attr recordingmode count
attr source ieee80211Unicast(packetSentToPeer)
attr title "packets sent: unicast, count"
scalar QosShowcase.ap.wlan[0].mac.hcf.edca.edcaf[0] packetSentToPeerUnicast:sum(packetBytes) 0
attr interpolationmode none
attr recordingmode sum(packetBytes)
attr source ieee80211Unicast(packetSentToPeer)
attr title "packets sent: unicast, sum(packetBytes)"
scalar QosShowcase.ap.wlan[0].mac.hcf.edca.edcaf[0] packetSentToPeerMulticast:count 0
attr interpolationmode none
attr recordingmode count
attr source ieee80211Multicast(packetSentToPeer)
attr title "packets sent: multicast, count"
scalar QosShowcase.ap.wlan[0].mac.hcf.edca.edcaf[0] packetSentToPeerMulticast:sum(packetBytes) 0
attr interpolationmode none
attr recordingmode sum(packetBytes)
attr source ieee80211Multicast(packetSentToPeer)
attr title "packets sent: multicast, sum(packetBytes)"
scalar QosShowcase.ap.wlan[0].mac.hcf.edca.edcaf[0] packetSentToPeerBroadcast:count 0
attr interpolationmode none
attr recordingmode count
attr source ieee80211Broadcast(packetSentToPeer)
attr title "packets sent: broadcast , count"
scalar QosShowcase.ap.wlan[0].mac.hcf.edca.edcaf[0] packetSentToPeerBroadcast:sum(packetBytes) 0
attr interpolationmode none
attr recordingmode sum(packetBytes)
attr source ieee80211Broadcast(packetSentToPeer)
attr title "packets sent: broadcast , sum(packetBytes)"
scalar QosShowcase.ap.wlan[0].mac.hcf.edca.edcaf[0] packetSentToPeerWithRetry:count 0
attr interpolationmode none
attr recordingmode count
attr source ieee80211Retry(packetSentToPeer)
attr title "packets sent: with retry, count"
scalar QosShowcase.ap.wlan[0].mac.hcf.edca.edcaf[0] packetSentToPeerWithRetry:sum(packetBytes) 0
attr interpolationmode none
attr recordingmode sum(packetBytes)
attr source ieee80211Retry(packetSentToPeer)
attr title "packets sent: with retry, sum(packetBytes)"
scalar QosShowcase.ap.wlan[0].mac.hcf.edca.edcaf[0] packetSentToPeerWithoutRetry:count 0
attr interpolationmode none
attr recordingmode count
attr source ieee80211NotRetry(packetSentToPeer)
attr title "packets sent: without retry, count"
scalar QosShowcase.ap.wlan[0].mac.hcf.edca.edcaf[0] packetSentToPeerWithoutRetry:sum(packetBytes) 0
attr interpolationmode none
attr recordingmode sum(packetBytes)
attr source ieee80211NotRetry(packetSentToPeer)
attr title "packets sent: without retry, sum(packetBytes)"
scalar QosShowcase.ap.wlan[0].mac.hcf.edca.edcaf[0] channelOwnershipChanged:count 0
attr interpolationmode sample-hold
attr recordingmode count
attr title "channel ownership, count"
par QosShowcase.ap.wlan[0].mac.hcf.edca.edcaf[1].pendingQueue typename "\"inet.linklayer.ieee80211.mac.queue.PendingQueue\""
par QosShowcase.ap.wlan[0].mac.hcf.edca.edcaf[1].pendingQueue displayStringTextFormat "\"contains %p pk (%l) pushed %u\\npulled %o removed %r dropped %d\""
par QosShowcase.ap.wlan[0].mac.hcf.edca.edcaf[1].pendingQueue packetCapacity 100
par QosShowcase.ap.wlan[0].mac.hcf.edca.edcaf[1].pendingQueue dataCapacity -1b
attr unit b
par QosShowcase.ap.wlan[0].mac.hcf.edca.edcaf[1].pendingQueue dropperClass "\"inet::queueing::PacketAtCollectionEndDropper\""
par QosShowcase.ap.wlan[0].mac.hcf.edca.edcaf[1].pendingQueue comparatorClass "\"inet::ieee80211::MgmtOverDataComparator\""
par QosShowcase.ap.wlan[0].mac.hcf.edca.edcaf[1].pendingQueue bufferModule "\"\""
scalar QosShowcase.ap.wlan[0].mac.hcf.edca.edcaf[1].pendingQueue queueLength:last 4
attr autoWarmupFilter false
attr interpolationmode sample-hold
attr recordingmode last
attr source "warmup(atomic(constant0(packetPushEnded) + count(packetPushStarted) - count(packetPulled) - count(packetRemoved) - count(packetDropped)))"
attr title "queue length, last"
attr unit pk
scalar QosShowcase.ap.wlan[0].mac.hcf.edca.edcaf[1].pendingQueue queueLength:max 4
attr autoWarmupFilter false
attr interpolationmode sample-hold
attr recordingmode max
attr source "warmup(atomic(constant0(packetPushEnded) + count(packetPushStarted) - count(packetPulled) - count(packetRemoved) - count(packetDropped)))"
attr title "queue length, max"
attr unit pk
scalar QosShowcase.ap.wlan[0].mac.hcf.edca.edcaf[1].pendingQueue queueLength:timeavg 0.059820706514318
attr autoWarmupFilter false
attr interpolationmode sample-hold
attr recordingmode timeavg
attr source "warmup(atomic(constant0(packetPushEnded) + count(packetPushStarted) - count(packetPulled) - count(packetRemoved) - count(packetDropped)))"
attr title "queue length, timeavg"
attr unit pk
scalar QosShowcase.ap.wlan[0].mac.hcf.edca.edcaf[1].pendingQueue queueBitLength:last 30912
attr autoWarmupFilter false
attr interpolationmode sample-hold
attr recordingmode last
attr source "warmup(atomic(constant0(packetPushEnded) + sum(packetLength(packetPushStarted)) - sum(packetLength(packetPulled)) - sum(packetLength(packetRemoved)) - sum(packetLength(packetDropped))))"
attr title "queue bit length, last"
attr unit b
scalar QosShowcase.ap.wlan[0].mac.hcf.edca.edcaf[1].pendingQueue queueBitLength:max 30912
attr autoWarmupFilter false
attr interpolationmode sample-hold
attr recordingmode max
attr source "warmup(atomic(constant0(packetPushEnded) + sum(packetLength(packetPushStarted)) - sum(packetLength(packetPulled)) - sum(packetLength(packetRemoved)) - sum(packetLength(packetDropped))))"
attr title "queue bit length, max"
attr unit b
scalar QosShowcase.ap.wlan[0].mac.hcf.edca.edcaf[1].pendingQueue queueBitLength:timeavg 458.59800489885
attr autoWarmupFilter false
attr interpolationmode sample-hold
attr recordingmode timeavg
attr source "warmup(atomic(constant0(packetPushEnded) + sum(packetLength(packetPushStarted)) - sum(packetLength(packetPulled)) - sum(packetLength(packetRemoved)) - sum(packetLength(packetDropped))))"
attr title "queue bit length, timeavg"
attr unit b
statistic QosShowcase.ap.wlan[0].mac.hcf.edca.edcaf[1].pendingQueue queueingTime:histogram
field count 2
field mean 1.000742943462
field stddev 0.00083505313049982
field min 1.000152471731
field max 1.001333415193
field sum 2.001485886924
field sqrsum 2.0029735750917
attr interpolationmode none
attr recordingmode histogram
attr source queueingTime(packetPulled)
attr title "queueing times"
attr unit s
bin	-inf	0
bin	0.99984	0
bin	0.99986	0
bin	0.99988	0
bin	0.9999	0
bin	0.99992	0
bin	0.99994	0
bin	0.99996	0
bin	0.99998	0
bin	1	0
bin	1.00002	0
bin	1.00004	0
bin	1.00006	0
bin	1.00008	0
bin	1.0001	0
bin	1.00012	0
bin	1.00014	1
bin	1.00016	0
bin	1.00018	0
bin	1.0002	0
bin	1.00022	0
bin	1.00024	0
bin	1.00026	0
bin	1.00028	0
bin	1.0003	0
bin	1.00032	0
bin	1.00034	0
bin	1.00036	0
bin	1.00038	0
bin	1.0004	0
bin	1.00042	0
bin	1.00044	0
bin	1.00046	0
bin	1.00048	0
bin	1.0005	0
bin	1.00052	0
bin	1.00054	0
bin	1.00056	0
bin	1.00058	0
bin	1.0006	0
bin	1.00062	0
bin	1.00064	0
bin	1.00066	0
bin	1.00068	0
bin	1.0007	0
bin	1.00072	0
bin	1.00074	0
bin	1.00076	0
bin	1.00078	0
bin	1.0008	0
bin	1.00082	0
bin	1.00084	0
bin	1.00086	0
bin	1.00088	0
bin	1.0009	0
bin	1.00092	0
bin	1.00094	0
bin	1.00096	0
bin	1.00098	0
bin	1.001	0
bin	1.00102	0
bin	1.00104	0
bin	1.00106	0
bin	1.00108	0
bin	1.0011	0
bin	1.00112	0
bin	1.00114	0
bin	1.00116	0
bin	1.00118	0
bin	1.0012	0
bin	1.00122	0
bin	1.00124	0
bin	1.00126	0
bin	1.00128	0
bin	1.0013	0
bin	1.00132	1
bin	1.00134	0
bin	1.00136	0
bin	1.00138	0
bin	1.0014	0
bin	1.00142	0
bin	1.00144	0
bin	1.00146	0
bin	1.00148	0
bin	1.0015	0
bin	1.00152	0
bin	1.00154	0
bin	1.00156	0
bin	1.00158	0
bin	1.0016	0
bin	1.00162	0
bin	1.00164	0
scalar QosShowcase.ap.wlan[0].mac.hcf.edca.edcaf[1].pendingQueue outgoingPackets:count 2
attr recordingmode count
attr source packetPulled
attr title "outgoing packets, count"
attr unit pk
scalar QosShowcase.ap.wlan[0].mac.hcf.edca.edcaf[1].pendingQueue outgoingPacketLengths:sum 1056
attr interpolationmode none
attr recordingmode sum
attr source packetLength(packetPulled)
attr title "outgoing packet lengths, sum"
attr unit b
statistic QosShowcase.ap.wlan[0].mac.hcf.edca.edcaf[1].pendingQueue outgoingPacketLengths:histogram
field count 2
field mean 528
field stddev 0
field min 528
field max 528
field sum 1056
field sqrsum 557568
attr interpolationmode none
attr recordingmode histogram
attr source packetLength(packetPulled)
attr title "outgoing packet lengths"
attr unit b
bin	-inf	0
bin	527	0
bin	528	2
bin	529	0
statistic QosShowcase.ap.wlan[0].mac.hcf.edca.edcaf[1].pendingQueue flowQueueingTime:histogram
field count 0
field mean nan
field stddev nan
field min nan
field max nan
field sum 0
field sqrsum 0
attr interpolationmode none
attr recordingmode histogram
attr source queueingTime(demuxFlow(packetPulled))
attr title "flow queueing times"
attr unit s
bin	-inf	0
bin	0	0
bin	1	0
scalar QosShowcase.ap.wlan[0].mac.hcf.edca.edcaf[1].pendingQueue incomingPackets:count 14
attr recordingmode count
attr source packetPushStarted
attr title "incoming packets, count"
attr unit pk
scalar QosShowcase.ap.wlan[0].mac.hcf.edca.edcaf[1].pendingQueue incomingPacketLengths:sum 93792
attr interpolationmode none
attr recordingmode sum
attr source packetLength(packetPushStarted)
attr title "incoming packet lengths, sum"
attr unit b
statistic QosShowcase.ap.wlan[0].mac.hcf.edca.edcaf[1].pendingQueue incomingPacketLengths:histogram
field count 14
field mean 6699.4285714286
field stddev 2614.5829411292
field min 528
field max 7728
field sum 93792
field sqrsum 717221376
attr interpolationmode none
attr recordingmode histogram
attr source packetLength(packetPushStarted)
attr title "incoming packet lengths"
attr unit b
bin	-inf	0
bin	0	0
bin	200	0
bin	400	2
bin	600	0
bin	800	0
bin	1000	0
bin	1200	0
bin	1400	0
bin	1600	0
bin	1800	0
bin	2000	0
bin	2200	0
bin	2400	0
bin	2600	0
bin	2800	0
bin	3000	0
bin	3200	0
bin	3400	0
bin	3600	0
bin	3800	0
bin	4000	0
bin	4200	0
bin	4400	0
bin	4600	0
bin	4800	0
bin	5000	0
bin	5200	0
bin	5400	0
bin	5600	0
bin	5800	0
bin	6000	0
bin	6200	0
bin	6400	0
bin	6600	0
bin	6800	0
bin	7000	0
bin	7200	0
bin	7400	0
bin	7600	12
bin	7800	0
bin	8000	0
bin	8200	0
bin	8400	0
bin	8600	0
bin	8800	0
bin	9000	0
bin	9200	0
bin	9400	0
bin	9600	0
scalar QosShowcase.ap.wlan[0].mac.hcf.edca.edcaf[1].pendingQueue droppedPacketsQueueOverflow:count 0
attr interpolationmode none
attr recordingmode count
attr source packetDropReasonIsQueueOverflow(packetDropped)
attr title "dropped packets: queue overflow, count"
attr unit pk
scalar QosShowcase.ap.wlan[0].mac.hcf.edca.edcaf[1].pendingQueue droppedPacketLengthsQueueOverflow:sum 0
attr interpolationmode none
attr recordingmode sum
attr source packetLength(packetDropReasonIsQueueOverflow(packetDropped))
attr title "dropped packet lengths: queue overflow, sum"
attr unit b
par QosShowcase.ap.wlan[0].mac.hcf.edca.edcaf[1].inProgressFrames typename "\"inet.linklayer.ieee80211.mac.queue.InProgressFrames\""
par QosShowcase.ap.wlan[0].mac.hcf.edca.edcaf[1].inProgressFrames pendingQueueModule "\"^.pendingQueue\""
par QosShowcase.ap.wlan[0].mac.hcf.edca.edcaf[1].inProgressFrames originatorMacDataServiceModule "\"^.^.^.originatorMacDataService\""
par QosShowcase.ap.wlan[0].mac.hcf.edca.edcaf[1].inProgressFrames ackHandlerModule "\"^.ackHandler\""
statistic QosShowcase.ap.wlan[0].mac.hcf.edca.edcaf[1].inProgressFrames queueingTime:histogram
field count 4
field mean 0.000715581975
field stddev 0.0011593329203954
field min 3.8e-05
field max 0.002446440976
field sum 0.0028623279
field sqrsum 6.0803887127169e-06
attr interpolationmode none
attr recordingmode histogram
attr source queueingTime(packetDequeued)
attr title "queueing times"
bin	-inf	0
bin	0	1
bin	5e-05	1
bin	0.0001	0
bin	0.00015	0
bin	0.0002	0
bin	0.00025	1
bin	0.0003	0
bin	0.00035	0
bin	0.0004	0
bin	0.00045	0
bin	0.0005	0
bin	0.00055	0
bin	0.0006	0
bin	0.00065	0
bin	0.0007	0
bin	0.00075	0
bin	0.0008	0
bin	0.00085	0
bin	0.0009	0
bin	0.00095	0
bin	0.001	0
bin	0.00105	0
bin	0.0011	0
bin	0.00115	0
bin	0.0012	0
bin	0.00125	0
bin	0.0013	0
bin	0.00135	0
bin	0.0014	0
bin	0.00145	0
bin	0.0015	0
bin	0.00155	0
bin	0.0016	0
bin	0.00165	0
bin	0.0017	0
bin	0.00175	0
bin	0.0018	0
bin	0.00185	0
bin	0.0019	0
bin	0.00195	0
bin	0.002	0
bin	0.00205	0
bin	0.0021	0
bin	0.00215	0
bin	0.0022	0
bin	0.00225	0
bin	0.0023	0
bin	0.00235	0
bin	0.0024	1
bin	0.00245	0
bin	0.0025	0
bin	0.00255	0
bin	0.0026	0
bin	0.00265	0
bin	0.0027	0
bin	0.00275	0
bin	0.0028	0
bin	0.00285	0
bin	0.0029	0
bin	0.00295	0
bin	0.003	0
bin	0.00305	0
scalar QosShowcase.ap.wlan[0].mac.hcf.edca.edcaf[1].inProgressFrames queueLength:max 4
attr autoWarmupFilter false
attr interpolationmode sample-hold
attr recordingmode max
attr source "warmup(count(packetEnqueued) - count(packetDequeued))"
attr title "queue length, max"
scalar QosShowcase.ap.wlan[0].mac.hcf.edca.edcaf[1].inProgressFrames queueLength:timeavg 0.05176088273563
attr autoWarmupFilter false
attr interpolationmode sample-hold
attr recordingmode timeavg
attr source "warmup(count(packetEnqueued) - count(packetDequeued))"
attr title "queue length, timeavg"
par QosShowcase.ap.wlan[0].mac.hcf.edca.edcaf[1].contention typename "\"inet.linklayer.ieee80211.mac.contention.Contention\""
par QosShowcase.ap.wlan[0].mac.hcf.edca.edcaf[1].contention initialChannelBusy true
par QosShowcase.ap.wlan[0].mac.hcf.edca.edcaf[1].contention backoffOptimization true
scalar QosShowcase.ap.wlan[0].mac.hcf.edca.edcaf[1].contention channelAccessGranted:count 6
attr recordingmode count
attr title "channel access granted, count"
scalar QosShowcase.ap.wlan[0].mac.hcf.edca.edcaf[1].contention stateChanged:count 600
attr enum IDLE,DEFER,IFS_AND_BACKOFF
attr interpolationmode none
attr recordingmode count
attr title "contention state changed, count"
attr type enum
par QosShowcase.ap.wlan[0].mac.hcf.edca.edcaf[1].ackHandler typename "\"inet.linklayer.ieee80211.mac.originator.QosAckHandler\""
par QosShowcase.ap.wlan[0].mac.hcf.edca.edcaf[1].txopProcedure typename "\"inet.linklayer.ieee80211.mac.originator.TxopProcedure\""
par QosShowcase.ap.wlan[0].mac.hcf.edca.edcaf[1].txopProcedure txopLimit -1s
attr unit s
scalar QosShowcase.ap.wlan[0].mac.hcf.edca.edcaf[1].txopProcedure txopEnded:count 5
attr interpolationmode none
attr recordingmode count
attr source txopEnded
attr title "txops ended, count"
statistic QosShowcase.ap.wlan[0].mac.hcf.edca.edcaf[1].txopProcedure txopDuration:histogram
field count 5
field mean 0.0001855660772
field stddev 0.00011960566918488
field min 3.8e-05
field max 0.000294943462
field sum 0.000927830386
field sqrsum 2.2939590944164e-07
attr interpolationmode none
attr recordingmode histogram
attr source txopDuration(txopEnded)
attr title "txop duration"
bin	-inf	0
bin	0	0
bin	5e-06	0
bin	1e-05	0
bin	1.5e-05	0
bin	2e-05	0
bin	2.5e-05	0
bin	3e-05	0
bin	3.5e-05	1
bin	4e-05	0
bin	4.5e-05	0
bin	5e-05	0
bin	5.5e-05	0
bin	6e-05	0
bin	6.5e-05	0
bin	7e-05	0
bin	7.5e-05	0
bin	8e-05	1
bin	8.5e-05	0
bin	9e-05	0
bin	9.5e-05	0
bin	0.0001	0
bin	0.000105	0
bin	0.00011	0
bin	0.000115	0
bin	0.00012	0
bin	0.000125	0
bin	0.00013	0
bin	0.000135	0
bin	0.00014	0
bin	0.000145	0
bin	0.00015	0
bin	0.000155	0
bin	0.00016	0
bin	0.000165	0
bin	0.00017	0
bin	0.000175	0
bin	0.00018	0
bin	0.000185	0
bin	0.00019	0
bin	0.000195	0
bin	0.0002	0
bin	0.000205	0
bin	0.00021	0
bin	0.000215	1
bin	0.00022	0
bin	0.000225	0
bin	0.00023	0
bin	0.000235	0
bin	0.00024	0
bin	0.000245	0
bin	0.00025	0
bin	0.000255	0
bin	0.00026	0
bin	0.000265	0
bin	0.00027	0
bin	0.000275	0
bin	0.00028	0
bin	0.000285	0
bin	0.00029	2
bin	0.000295	0
bin	0.0003	0
bin	0.000305	0
bin	0.00031	0
bin	0.000315	0
bin	0.00032	0
bin	0.000325	0
bin	0.00033	0
bin	0.000335	0
bin	0.00034	0
bin	0.000345	0
bin	0.00035	0
bin	0.000355	0
bin	0.00036	0
par QosShowcase.ap.wlan[0].mac.hcf.edca.edcaf[1].recoveryProcedure typename "\"inet.linklayer.ieee80211.mac.originator.QosRecoveryProcedure\""
par QosShowcase.ap.wlan[0].mac.hcf.edca.edcaf[1].recoveryProcedure cwCalculatorModule "\"^\""
par QosShowcase.ap.wlan[0].mac.hcf.edca.edcaf[1].recoveryProcedure rtsPolicyModule "\"^.^.^.rtsPolicy\""
par QosShowcase.ap.wlan[0].mac.hcf.edca.edcaf[1].recoveryProcedure shortRetryLimit 7
par QosShowcase.ap.wlan[0].mac.hcf.edca.edcaf[1].recoveryProcedure longRetryLimit 4
scalar QosShowcase.ap.wlan[0].mac.hcf.edca.edcaf[1].recoveryProcedure retryLimitReached:count 0
attr recordingmode count
attr title "retry limit reached, count"
par QosShowcase.ap.wlan[0].mac.hcf.edca.edcaf[1] typename "\"inet.linklayer.ieee80211.mac.channelaccess.Edcaf\""
par QosShowcase.ap.wlan[0].mac.hcf.edca.edcaf[1] rxModule "\"^.^.^.rx\""
par QosShowcase.ap.wlan[0].mac.hcf.edca.edcaf[1] collisionControllerModule "\"^.collisionController\""
par QosShowcase.ap.wlan[0].mac.hcf.edca.edcaf[1] originatorMacDataServiceModule "\"^.^.originatorMacDataService\""
par QosShowcase.ap.wlan[0].mac.hcf.edca.edcaf[1] accessCategory "\"AC_BE\""
attr enum AC_BK,AC_BE,AC_VI,AC_VO
par QosShowcase.ap.wlan[0].mac.hcf.edca.edcaf[1] aifsn -1
par QosShowcase.ap.wlan[0].mac.hcf.edca.edcaf[1] cwMin -1
par QosShowcase.ap.wlan[0].mac.hcf.edca.edcaf[1] cwMax -1
scalar QosShowcase.ap.wlan[0].mac.hcf.edca.edcaf[1] packetSentToPeer:count 5
attr interpolationmode none
attr recordingmode count
attr title "packets sent, count"
scalar QosShowcase.ap.wlan[0].mac.hcf.edca.edcaf[1] packetSentToPeer:sum(packetBytes) 4028
attr interpolationmode none
attr recordingmode sum(packetBytes)
attr title "packets sent, sum(packetBytes)"
scalar QosShowcase.ap.wlan[0].mac.hcf.edca.edcaf[1] packetSentToPeerUnicast:count 4
attr interpolationmode none
attr recordingmode count
attr source ieee80211Unicast(packetSentToPeer)
attr title "packets sent: unicast, count"
scalar QosShowcase.ap.wlan[0].mac.hcf.edca.edcaf[1] packetSentToPeerUnicast:sum(packetBytes) 3962
attr interpolationmode none
attr recordingmode sum(packetBytes)
attr source ieee80211Unicast(packetSentToPeer)
attr title "packets sent: unicast, sum(packetBytes)"
scalar QosShowcase.ap.wlan[0].mac.hcf.edca.edcaf[1] packetSentToPeerMulticast:count 1
attr interpolationmode none
attr recordingmode count
attr source ieee80211Multicast(packetSentToPeer)
attr title "packets sent: multicast, count"
scalar QosShowcase.ap.wlan[0].mac.hcf.edca.edcaf[1] packetSentToPeerMulticast:sum(packetBytes) 66
attr interpolationmode none
attr recordingmode sum(packetBytes)
attr source ieee80211Multicast(packetSentToPeer)
attr title "packets sent: multicast, sum(packetBytes)"
scalar QosShowcase.ap.wlan[0].mac.hcf.edca.edcaf[1] packetSentToPeerBroadcast:count 1
attr interpolationmode none
attr recordingmode count
attr source ieee80211Broadcast(packetSentToPeer)
attr title "packets sent: broadcast , count"
scalar QosShowcase.ap.wlan[0].mac.hcf.edca.edcaf[1] packetSentToPeerBroadcast:sum(packetBytes) 66
attr interpolationmode none
attr recordingmode sum(packetBytes)
attr source ieee80211Broadcast(packetSentToPeer)
attr title "packets sent: broadcast , sum(packetBytes)"
scalar QosShowcase.ap.wlan[0].mac.hcf.edca.edcaf[1] packetSentToPeerWithRetry:count 0
attr interpolationmode none
attr recordingmode count
attr source ieee80211Retry(packetSentToPeer)
attr title "packets sent: with retry, count"
scalar QosShowcase.ap.wlan[0].mac.hcf.edca.edcaf[1] packetSentToPeerWithRetry:sum(packetBytes) 0
attr interpolationmode none
attr recordingmode sum(packetBytes)
attr source ieee80211Retry(packetSentToPeer)
attr title "packets sent: with retry, sum(packetBytes)"
scalar QosShowcase.ap.wlan[0].mac.hcf.edca.edcaf[1] packetSentToPeerWithoutRetry:count 5
attr interpolationmode none
attr recordingmode count
attr source ieee80211NotRetry(packetSentToPeer)
attr title "packets sent: without retry, count"
scalar QosShowcase.ap.wlan[0].mac.hcf.edca.edcaf[1] packetSentToPeerWithoutRetry:sum(packetBytes) 4028
attr interpolationmode none
attr recordingmode sum(packetBytes)
attr source ieee80211NotRetry(packetSentToPeer)
attr title "packets sent: without retry, sum(packetBytes)"
scalar QosShowcase.ap.wlan[0].mac.hcf.edca.edcaf[1] channelOwnershipChanged:count 10
attr interpolationmode sample-hold
attr recordingmode count
attr title "channel ownership, count"
par QosShowcase.ap.wlan[0].mac.hcf.edca.edcaf[2].pendingQueue typename "\"inet.linklayer.ieee80211.mac.queue.PendingQueue\""
par QosShowcase.ap.wlan[0].mac.hcf.edca.edcaf[2].pendingQueue displayStringTextFormat "\"contains %p pk (%l) pushed %u\\npulled %o removed %r dropped %d\""
par QosShowcase.ap.wlan[0].mac.hcf.edca.edcaf[2].pendingQueue packetCapacity 100
par QosShowcase.ap.wlan[0].mac.hcf.edca.edcaf[2].pendingQueue dataCapacity -1b
attr unit b
par QosShowcase.ap.wlan[0].mac.hcf.edca.edcaf[2].pendingQueue dropperClass "\"inet::queueing::PacketAtCollectionEndDropper\""
par QosShowcase.ap.wlan[0].mac.hcf.edca.edcaf[2].pendingQueue comparatorClass "\"inet::ieee80211::MgmtOverDataComparator\""
par QosShowcase.ap.wlan[0].mac.hcf.edca.edcaf[2].pendingQueue bufferModule "\"\""
scalar QosShowcase.ap.wlan[0].mac.hcf.edca.edcaf[2].pendingQueue queueLength:last 1
attr autoWarmupFilter false
attr interpolationmode sample-hold
attr recordingmode last
attr source "warmup(atomic(constant0(packetPushEnded) + count(packetPushStarted) - count(packetPulled) - count(packetRemoved) - count(packetDropped)))"
attr title "queue length, last"
attr unit pk
scalar QosShowcase.ap.wlan[0].mac.hcf.edca.edcaf[2].pendingQueue queueLength:max 3
attr autoWarmupFilter false
attr interpolationmode sample-hold
attr recordingmode max
attr source "warmup(atomic(constant0(packetPushEnded) + count(packetPushStarted) - count(packetPulled) - count(packetRemoved) - count(packetDropped)))"
attr title "queue length, max"
attr unit pk
scalar QosShowcase.ap.wlan[0].mac.hcf.edca.edcaf[2].pendingQueue queueLength:timeavg 0.012793725951389
attr autoWarmupFilter false
attr interpolationmode sample-hold
attr recordingmode timeavg
attr source "warmup(atomic(constant0(packetPushEnded) + count(packetPushStarted) - count(packetPulled) - count(packetRemoved) - count(packetDropped)))"
attr title "queue length, timeavg"
attr unit pk
scalar QosShowcase.ap.wlan[0].mac.hcf.edca.edcaf[2].pendingQueue queueBitLength:last 5328
attr autoWarmupFilter false
attr interpolationmode sample-hold
attr recordingmode last
attr source "warmup(atomic(constant0(packetPushEnded) + sum(packetLength(packetPushStarted)) - sum(packetLength(packetPulled)) - sum(packetLength(packetRemoved)) - sum(packetLength(packetDropped))))"
attr title "queue bit length, last"
attr unit b
scalar QosShowcase.ap.wlan[0].mac.hcf.edca.edcaf[2].pendingQueue queueBitLength:max 15984
attr autoWarmupFilter false
attr interpolationmode sample-hold
attr recordingmode max
attr source "warmup(atomic(constant0(packetPushEnded) + sum(packetLength(packetPushStarted)) - sum(packetLength(packetPulled)) - sum(packetLength(packetRemoved)) - sum(packetLength(packetDropped))))"
attr title "queue bit length, max"
attr unit b
scalar QosShowcase.ap.wlan[0].mac.hcf.edca.edcaf[2].pendingQueue queueBitLength:timeavg 68.164971869002
attr autoWarmupFilter false
attr interpolationmode sample-hold
attr recordingmode timeavg
attr source "warmup(atomic(constant0(packetPushEnded) + sum(packetLength(packetPushStarted)) - sum(packetLength(packetPulled)) - sum(packetLength(packetRemoved)) - sum(packetLength(packetDropped))))"
attr title "queue bit length, timeavg"
attr unit b
statistic QosShowcase.ap.wlan[0].mac.hcf.edca.edcaf[2].pendingQueue queueingTime:histogram
field count 8
field mean 1.0158969208415
field stddev 0.0092238265300546
field min 1.002828815262
field max 1.027077813406
field sum 8.127175366732
field sqrsum 8.2569679830329
attr interpolationmode none
attr recordingmode histogram
attr source queueingTime(packetPulled)
attr title "queueing times"
attr unit s
bin	-inf	0
bin	0.9965	0
bin	0.997	0
bin	0.9975	0
bin	0.998	0
bin	0.9985	0
bin	0.999	0
bin	0.9995	0
bin	1	0
bin	1.0005	0
bin	1.001	0
bin	1.0015	0
bin	1.002	0
bin	1.0025	1
bin	1.003	0
bin	1.0035	0
bin	1.004	1
bin	1.0045	0
bin	1.005	0
bin	1.0055	0
bin	1.006	0
bin	1.0065	0
bin	1.007	0
bin	1.0075	0
bin	1.008	0
bin	1.0085	0
bin	1.009	0
bin	1.0095	0
bin	1.01	0
bin	1.0105	0
bin	1.011	0
bin	1.0115	0
bin	1.012	1
bin	1.0125	0
bin	1.013	1
bin	1.0135	0
bin	1.014	0
bin	1.0145	0
bin	1.015	0
bin	1.0155	0
bin	1.016	0
bin	1.0165	0
bin	1.017	0
bin	1.0175	0
bin	1.018	0
bin	1.0185	0
bin	1.019	0
bin	1.0195	0
bin	1.02	1
bin	1.0205	0
bin	1.021	0
bin	1.0215	0
bin	1.022	0
bin	1.0225	0
bin	1.023	1
bin	1.0235	0
bin	1.024	1
bin	1.0245	0
bin	1.025	0
bin	1.0255	0
bin	1.026	0
bin	1.0265	0
bin	1.027	1
bin	1.0275	0
bin	1.028	0
bin	1.0285	0
bin	1.029	0
bin	1.0295	0
bin	1.03	0
bin	1.0305	0
bin	1.031	0
bin	1.0315	0
bin	1.032	0
bin	1.0325	0
bin	1.033	0
bin	1.0335	0
scalar QosShowcase.ap.wlan[0].mac.hcf.edca.edcaf[2].pendingQueue outgoingPackets:count 8
attr recordingmode count
attr source packetPulled
attr title "outgoing packets, count"
attr unit pk
scalar QosShowcase.ap.wlan[0].mac.hcf.edca.edcaf[2].pendingQueue outgoingPacketLengths:sum 42624
attr interpolationmode none
attr recordingmode sum
attr source packetLength(packetPulled)
attr title "outgoing packet lengths, sum"
attr unit b
statistic QosShowcase.ap.wlan[0].mac.hcf.edca.edcaf[2].pendingQueue outgoingPacketLengths:histogram
field count 8
field mean 5328
field stddev 0
field min 5328
field max 5328
field sum 42624
field sqrsum 227100672
attr interpolationmode none
attr recordingmode histogram
attr source packetLength(packetPulled)
attr title "outgoing packet lengths"
attr unit b
bin	-inf	0
bin	5327	0
bin	5328	8
bin	5329	0
statistic QosShowcase.ap.wlan[0].mac.hcf.edca.edcaf[2].pendingQueue flowQueueingTime:histogram
field count 0
field mean nan
field stddev nan
field min nan
field max nan
field sum 0
field sqrsum 0
attr interpolationmode none
attr recordingmode histogram
attr source queueingTime(demuxFlow(packetPulled))
attr title "flow queueing times"
attr unit s
bin	-inf	0
bin	0	0
bin	1	0
scalar QosShowcase.ap.wlan[0].mac.hcf.edca.edcaf[2].pendingQueue incomingPackets:count 28
attr recordingmode count
attr source packetPushStarted
attr title "incoming packets, count"
attr unit pk
scalar QosShowcase.ap.wlan[0].mac.hcf.edca.edcaf[2].pendingQueue incomingPacketLengths:sum 149184
attr interpolationmode none
attr recordingmode sum
attr source packetLength(packetPushStarted)
attr title "incoming packet lengths, sum"
attr unit b
statistic QosShowcase.ap.wlan[0].mac.hcf.edca.edcaf[2].pendingQueue incomingPacketLengths:histogram
field count 28
field mean 5328
field stddev 0
field min 5328
field max 5328
field sum 149184
field sqrsum 794852352
attr interpolationmode none
attr recordingmode histogram
attr source packetLength(packetPushStarted)
attr title "incoming packet lengths"
attr unit b
bin	-inf	0
bin	5327	0
bin	5328	28
bin	5329	0
scalar QosShowcase.ap.wlan[0].mac.hcf.edca.edcaf[2].pendingQueue droppedPacketsQueueOverflow:count 0
attr interpolationmode none
attr recordingmode count
attr source packetDropReasonIsQueueOverflow(packetDropped)
attr title "dropped packets: queue overflow, count"
attr unit pk
scalar QosShowcase.ap.wlan[0].mac.hcf.edca.edcaf[2].pendingQueue droppedPacketLengthsQueueOverflow:sum 0
attr interpolationmode none
attr recordingmode sum
attr source packetLength(packetDropReasonIsQueueOverflow(packetDropped))
attr title "dropped packet lengths: queue overflow, sum"
attr unit b
par QosShowcase.ap.wlan[0].mac.hcf.edca.edcaf[2].inProgressFrames typename "\"inet.linklayer.ieee80211.mac.queue.InProgressFrames\""
par QosShowcase.ap.wlan[0].mac.hcf.edca.edcaf[2].inProgressFrames pendingQueueModule "\"^.pendingQueue\""
par QosShowcase.ap.wlan[0].mac.hcf.edca.edcaf[2].inProgressFrames originatorMacDataServiceModule "\"^.^.^.originatorMacDataService\""
par QosShowcase.ap.wlan[0].mac.hcf.edca.edcaf[2].inProgressFrames ackHandlerModule "\"^.ackHandler\""
statistic QosShowcase.ap.wlan[0].mac.hcf.edca.edcaf[2].inProgressFrames queueingTime:histogram
field count 18
field mean 0.00023810698766667
field stddev 7.4900668063054e-05
field min 0.000170943462
field max 0.000455886924
field sum 0.004285925778
field sqrsum 1.1158807476595e-06
attr interpolationmode none
attr recordingmode histogram
attr source queueingTime(packetDequeued)
attr title "queueing times"
bin	-inf	0
bin	9.5e-05	0
bin	0.0001	0
bin	0.000105	0
bin	0.00011	0
bin	0.000115	0
bin	0.00012	0
bin	0.000125	0
bin	0.00013	0
bin	0.000135	0
bin	0.00014	0
bin	0.000145	0
bin	0.00015	0
bin	0.000155	0
bin	0.00016	0
bin	0.000165	0
bin	0.00017	8
bin	0.000175	0
bin	0.00018	0
bin	0.000185	0
bin	0.00019	0
bin	0.000195	0
bin	0.0002	0
bin	0.000205	0
bin	0.00021	0
bin	0.000215	0
bin	0.00022	0
bin	0.000225	0
bin	0.00023	0
bin	0.000235	0
bin	0.00024	0
bin	0.000245	0
bin	0.00025	0
bin	0.000255	0
bin	0.00026	0
bin	0.000265	0
bin	0.00027	8
bin	0.000275	0
bin	0.00028	0
bin	0.000285	0
bin	0.00029	1
bin	0.000295	0
bin	0.0003	0
bin	0.000305	0
bin	0.00031	0
bin	0.000315	0
bin	0.00032	0
bin	0.000325	0
bin	0.00033	0
bin	0.000335	0
bin	0.00034	0
bin	0.000345	0
bin	0.00035	0
bin	0.000355	0
bin	0.00036	0
bin	0.000365	0
bin	0.00037	0
bin	0.000375	0
bin	0.00038	0
bin	0.000385	0
bin	0.00039	0
bin	0.000395	0
bin	0.0004	0
bin	0.000405	0
bin	0.00041	0
bin	0.000415	0
bin	0.00042	0
bin	0.000425	0
bin	0.00043	0
bin	0.000435	0
bin	0.00044	0
bin	0.000445	0
bin	0.00045	0
bin	0.000455	1
bin	0.00046	0
bin	0.000465	0
bin	0.00047	0
bin	0.000475	0
bin	0.00048	0
bin	0.000485	0
bin	0.00049	0
bin	0.000495	0
bin	0.0005	0
bin	0.000505	0
bin	0.00051	0
bin	0.000515	0
bin	0.00052	0
bin	0.000525	0
bin	0.00053	0
scalar QosShowcase.ap.wlan[0].mac.hcf.edca.edcaf[2].inProgressFrames queueLength:max 2
attr autoWarmupFilter false
attr interpolationmode sample-hold
attr recordingmode max
attr source "warmup(count(packetEnqueued) - count(packetDequeued))"
attr title "queue length, max"
scalar QosShowcase.ap.wlan[0].mac.hcf.edca.edcaf[2].inProgressFrames queueLength:timeavg 0.0041673402047627
attr autoWarmupFilter false
attr interpolationmode sample-hold
attr recordingmode timeavg
attr source "warmup(count(packetEnqueued) - count(packetDequeued))"
attr title "queue length, timeavg"
par QosShowcase.ap.wlan[0].mac.hcf.edca.edcaf[2].contention typename "\"inet.linklayer.ieee80211.mac.contention.Contention\""
par QosShowcase.ap.wlan[0].mac.hcf.edca.edcaf[2].contention initialChannelBusy true
par QosShowcase.ap.wlan[0].mac.hcf.edca.edcaf[2].contention backoffOptimization true
scalar QosShowcase.ap.wlan[0].mac.hcf.edca.edcaf[2].contention channelAccessGranted:count 17
attr recordingmode count
attr title "channel access granted, count"
scalar QosShowcase.ap.wlan[0].mac.hcf.edca.edcaf[2].contention stateChanged:count 644
attr enum IDLE,DEFER,IFS_AND_BACKOFF
attr interpolationmode none
attr recordingmode count
attr title "contention state changed, count"
attr type enum
par QosShowcase.ap.wlan[0].mac.hcf.edca.edcaf[2].ackHandler typename "\"inet.linklayer.ieee80211.mac.originator.QosAckHandler\""
par QosShowcase.ap.wlan[0].mac.hcf.edca.edcaf[2].txopProcedure typename "\"inet.linklayer.ieee80211.mac.originator.TxopProcedure\""
par QosShowcase.ap.wlan[0].mac.hcf.edca.edcaf[2].txopProcedure txopLimit -1s
attr unit s
scalar QosShowcase.ap.wlan[0].mac.hcf.edca.edcaf[2].txopProcedure txopEnded:count 17
attr interpolationmode none
attr recordingmode count
attr source txopEnded
attr title "txops ended, count"
statistic QosShowcase.ap.wlan[0].mac.hcf.edca.edcaf[2].txopProcedure txopDuration:histogram
field count 17
field mean 0.00023476366564706
field stddev 7.5808749431613e-05
field min 0.000170943462
field max 0.000455886924
field sum 0.003990982316
field sqrsum 1.0288891018829e-06
attr interpolationmode none
attr recordingmode histogram
attr source txopDuration(txopEnded)
attr title "txop duration"
bin	-inf	0
bin	9.5e-05	0
bin	0.0001	0
bin	0.000105	0
bin	0.00011	0
bin	0.000115	0
bin	0.00012	0
bin	0.000125	0
bin	0.00013	0
bin	0.000135	0
bin	0.00014	0
bin	0.000145	0
bin	0.00015	0
bin	0.000155	0
bin	0.00016	0
bin	0.000165	0
bin	0.00017	8
bin	0.000175	0
bin	0.00018	0
bin	0.000185	0
bin	0.00019	0
bin	0.000195	0
bin	0.0002	0
bin	0.000205	0
bin	0.00021	0
bin	0.000215	0
bin	0.00022	0
bin	0.000225	0
bin	0.00023	0
bin	0.000235	0
bin	0.00024	0
bin	0.000245	0
bin	0.00025	0
bin	0.000255	0
bin	0.00026	0
bin	0.000265	0
bin	0.00027	8
bin	0.000275	0
bin	0.00028	0
bin	0.000285	0
bin	0.00029	0
bin	0.000295	0
bin	0.0003	0
bin	0.000305	0
bin	0.00031	0
bin	0.000315	0
bin	0.00032	0
bin	0.000325	0
bin	0.00033	0
bin	0.000335	0
bin	0.00034	0
bin	0.000345	0
bin	0.00035	0
bin	0.000355	0
bin	0.00036	0
bin	0.000365	0
bin	0.00037	0
bin	0.000375	0
bin	0.00038	0
bin	0.000385	0
bin	0.00039	0
bin	0.000395	0
bin	0.0004	0
bin	0.000405	0
bin	0.00041	0
bin	0.000415	0
bin	0.00042	0
bin	0.000425	0
bin	0.00043	0
bin	0.000435	0
bin	0.00044	0
bin	0.000445	0
bin	0.00045	0
bin	0.000455	1
bin	0.00046	0
bin	0.000465	0
bin	0.00047	0
bin	0.000475	0
bin	0.00048	0
bin	0.000485	0
bin	0.00049	0
bin	0.000495	0
bin	0.0005	0
bin	0.000505	0
bin	0.00051	0
bin	0.000515	0
bin	0.00052	0
bin	0.000525	0
bin	0.00053	0
par QosShowcase.ap.wlan[0].mac.hcf.edca.edcaf[2].recoveryProcedure typename "\"inet.linklayer.ieee80211.mac.originator.QosRecoveryProcedure\""
par QosShowcase.ap.wlan[0].mac.hcf.edca.edcaf[2].recoveryProcedure cwCalculatorModule "\"^\""
par QosShowcase.ap.wlan[0].mac.hcf.edca.edcaf[2].recoveryProcedure rtsPolicyModule "\"^.^.^.rtsPolicy\""
par QosShowcase.ap.wlan[0].mac.hcf.edca.edcaf[2].recoveryProcedure shortRetryLimit 7
par QosShowcase.ap.wlan[0].mac.hcf.edca.edcaf[2].recoveryProcedure longRetryLimit 4
scalar QosShowcase.ap.wlan[0].mac.hcf.edca.edcaf[2].recoveryProcedure retryLimitReached:count 0
attr recordingmode count
attr title "retry limit reached, count"
par QosShowcase.ap.wlan[0].mac.hcf.edca.edcaf[2] typename "\"inet.linklayer.ieee80211.mac.channelaccess.Edcaf\""
par QosShowcase.ap.wlan[0].mac.hcf.edca.edcaf[2] rxModule "\"^.^.^.rx\""
par QosShowcase.ap.wlan[0].mac.hcf.edca.edcaf[2] collisionControllerModule "\"^.collisionController\""
par QosShowcase.ap.wlan[0].mac.hcf.edca.edcaf[2] originatorMacDataServiceModule "\"^.^.originatorMacDataService\""
par QosShowcase.ap.wlan[0].mac.hcf.edca.edcaf[2] accessCategory "\"AC_VI\""
attr enum AC_BK,AC_BE,AC_VI,AC_VO
par QosShowcase.ap.wlan[0].mac.hcf.edca.edcaf[2] aifsn -1
par QosShowcase.ap.wlan[0].mac.hcf.edca.edcaf[2] cwMin -1
par QosShowcase.ap.wlan[0].mac.hcf.edca.edcaf[2] cwMax -1
scalar QosShowcase.ap.wlan[0].mac.hcf.edca.edcaf[2] packetSentToPeer:count 18
attr interpolationmode none
attr recordingmode count
attr title "packets sent, count"
scalar QosShowcase.ap.wlan[0].mac.hcf.edca.edcaf[2] packetSentToPeer:sum(packetBytes) 17998
attr interpolationmode none
attr recordingmode sum(packetBytes)
attr title "packets sent, sum(packetBytes)"
scalar QosShowcase.ap.wlan[0].mac.hcf.edca.edcaf[2] packetSentToPeerUnicast:count 18
attr interpolationmode none
attr recordingmode count
attr source ieee80211Unicast(packetSentToPeer)
attr title "packets sent: unicast, count"
scalar QosShowcase.ap.wlan[0].mac.hcf.edca.edcaf[2] packetSentToPeerUnicast:sum(packetBytes) 17998
attr interpolationmode none
attr recordingmode sum(packetBytes)
attr source ieee80211Unicast(packetSentToPeer)
attr title "packets sent: unicast, sum(packetBytes)"
scalar QosShowcase.ap.wlan[0].mac.hcf.edca.edcaf[2] packetSentToPeerMulticast:count 0
attr interpolationmode none
attr recordingmode count
attr source ieee80211Multicast(packetSentToPeer)
attr title "packets sent: multicast, count"
scalar QosShowcase.ap.wlan[0].mac.hcf.edca.edcaf[2] packetSentToPeerMulticast:sum(packetBytes) 0
attr interpolationmode none
attr recordingmode sum(packetBytes)
attr source ieee80211Multicast(packetSentToPeer)
attr title "packets sent: multicast, sum(packetBytes)"
scalar QosShowcase.ap.wlan[0].mac.hcf.edca.edcaf[2] packetSentToPeerBroadcast:count 0
attr interpolationmode none
attr recordingmode count
attr source ieee80211Broadcast(packetSentToPeer)
attr title "packets sent: broadcast , count"
scalar QosShowcase.ap.wlan[0].mac.hcf.edca.edcaf[2] packetSentToPeerBroadcast:sum(packetBytes) 0
attr interpolationmode none
attr recordingmode sum(packetBytes)
attr source ieee80211Broadcast(packetSentToPeer)
attr title "packets sent: broadcast , sum(packetBytes)"
scalar QosShowcase.ap.wlan[0].mac.hcf.edca.edcaf[2] packetSentToPeerWithRetry:count 0
attr interpolationmode none
attr recordingmode count
attr source ieee80211Retry(packetSentToPeer)
attr title "packets sent: with retry, count"
scalar QosShowcase.ap.wlan[0].mac.hcf.edca.edcaf[2] packetSentToPeerWithRetry:sum(packetBytes) 0
attr interpolationmode none
attr recordingmode sum(packetBytes)
attr source ieee80211Retry(packetSentToPeer)
attr title "packets sent: with retry, sum(packetBytes)"
scalar QosShowcase.ap.wlan[0].mac.hcf.edca.edcaf[2] packetSentToPeerWithoutRetry:count 18
attr interpolationmode none
attr recordingmode count
attr source ieee80211NotRetry(packetSentToPeer)
attr title "packets sent: without retry, count"
scalar QosShowcase.ap.wlan[0].mac.hcf.edca.edcaf[2] packetSentToPeerWithoutRetry:sum(packetBytes) 17998
attr interpolationmode none
attr recordingmode sum(packetBytes)
attr source ieee80211NotRetry(packetSentToPeer)
attr title "packets sent: without retry, sum(packetBytes)"
scalar QosShowcase.ap.wlan[0].mac.hcf.edca.edcaf[2] channelOwnershipChanged:count 34
attr interpolationmode sample-hold
attr recordingmode count
attr title "channel ownership, count"
par QosShowcase.ap.wlan[0].mac.hcf.edca.edcaf[3].pendingQueue typename "\"inet.linklayer.ieee80211.mac.queue.PendingQueue\""
par QosShowcase.ap.wlan[0].mac.hcf.edca.edcaf[3].pendingQueue displayStringTextFormat "\"contains %p pk (%l) pushed %u\\npulled %o removed %r dropped %d\""
par QosShowcase.ap.wlan[0].mac.hcf.edca.edcaf[3].pendingQueue packetCapacity 100
par QosShowcase.ap.wlan[0].mac.hcf.edca.edcaf[3].pendingQueue dataCapacity -1b
attr unit b
par QosShowcase.ap.wlan[0].mac.hcf.edca.edcaf[3].pendingQueue dropperClass "\"inet::queueing::PacketAtCollectionEndDropper\""
par QosShowcase.ap.wlan[0].mac.hcf.edca.edcaf[3].pendingQueue comparatorClass "\"inet::ieee80211::MgmtOverDataComparator\""
par QosShowcase.ap.wlan[0].mac.hcf.edca.edcaf[3].pendingQueue bufferModule "\"\""
scalar QosShowcase.ap.wlan[0].mac.hcf.edca.edcaf[3].pendingQueue queueLength:last 1
[...]
par QosShowcase.visualizer.physicalLinkVisualizer lineContactSpacing 3
par QosShowcase.visualizer.physicalLinkVisualizer lineContactMode "\"rectangular\""
attr enum circular,rectangular
par QosShowcase.visualizer.physicalLinkVisualizer labelFormat "\"%n\""
par QosShowcase.visualizer.physicalLinkVisualizer labelFont "\"<default>, 8px\""
par QosShowcase.visualizer.physicalLinkVisualizer labelColor "\"olive\""
par QosShowcase.visualizer.physicalLinkVisualizer fadeOutMode "\"realTime\""
attr enum realTime,animationTime,simulationTime
par QosShowcase.visualizer.physicalLinkVisualizer fadeOutTime 1s
attr unit s
par QosShowcase.visualizer.physicalLinkVisualizer fadeOutAnimationSpeed 0
par QosShowcase.visualizer.physicalLinkVisualizer holdAnimationTime 0s
attr unit s
par QosShowcase.visualizer.physicalLinkVisualizer zIndex 1
par QosShowcase.visualizer.interfaceTableVisualizer typename "\"inet.visualizer.canvas.linklayer.InterfaceTableCanvasVisualizer\""
par QosShowcase.visualizer.interfaceTableVisualizer visualizationTargetModule "\"^.^\""
par QosShowcase.visualizer.interfaceTableVisualizer visualizationSubjectModule "\"^.^\""
par QosShowcase.visualizer.interfaceTableVisualizer tags "\"\""
par QosShowcase.visualizer.interfaceTableVisualizer networkNodeVisualizerModule "\"^.networkNodeVisualizer\""
par QosShowcase.visualizer.interfaceTableVisualizer displayInterfaceTables false
par QosShowcase.visualizer.interfaceTableVisualizer displayWiredInterfacesAtConnections true
par QosShowcase.visualizer.interfaceTableVisualizer displayBackground false
par QosShowcase.visualizer.interfaceTableVisualizer nodeFilter "\"*\""
attr mutable ""
par QosShowcase.visualizer.interfaceTableVisualizer interfaceFilter "\"not(lo*)\""
attr mutable ""
par QosShowcase.visualizer.interfaceTableVisualizer format "\"%N %\\\\%a%/%l\""
attr mutable ""
par QosShowcase.visualizer.interfaceTableVisualizer placementHint "\"top\""
par QosShowcase.visualizer.interfaceTableVisualizer placementPriority 0
par QosShowcase.visualizer.interfaceTableVisualizer font "\"<default>\""
par QosShowcase.visualizer.interfaceTableVisualizer textColor "\"#005030\""
par QosShowcase.visualizer.interfaceTableVisualizer backgroundColor "\"white\""
par QosShowcase.visualizer.interfaceTableVisualizer opacity 1
par QosShowcase.visualizer.interfaceTableVisualizer zIndex 10
par QosShowcase.visualizer.interfaceTableVisualizer anchor "\"l\""
attr enum l,r,t
par QosShowcase.visualizer.dataLinkVisualizer typename "\"inet.visualizer.canvas.linklayer.DataLinkCanvasVisualizer\""
par QosShowcase.visualizer.dataLinkVisualizer visualizationTargetModule "\"^.^\""
par QosShowcase.visualizer.dataLinkVisualizer visualizationSubjectModule "\"^.^\""
par QosShowcase.visualizer.dataLinkVisualizer tags "\"\""
par QosShowcase.visualizer.dataLinkVisualizer displayLinks false
par QosShowcase.visualizer.dataLinkVisualizer activityLevel "\"service\""
attr enum service,peer,protocol
par QosShowcase.visualizer.dataLinkVisualizer nodeFilter "\"*\""
attr mutable ""
par QosShowcase.visualizer.dataLinkVisualizer interfaceFilter "\"*\""
attr mutable ""
par QosShowcase.visualizer.dataLinkVisualizer packetFilter "(omnetpp::cValueHolder)holder: \"*\""
attr mutable ""
par QosShowcase.visualizer.dataLinkVisualizer lineColor "\"darkcyan\""
par QosShowcase.visualizer.dataLinkVisualizer lineStyle "\"solid\""
par QosShowcase.visualizer.dataLinkVisualizer lineWidth 3
par QosShowcase.visualizer.dataLinkVisualizer lineShift 16
par QosShowcase.visualizer.dataLinkVisualizer lineShiftMode "\"normal\""
par QosShowcase.visualizer.dataLinkVisualizer lineContactSpacing 3
par QosShowcase.visualizer.dataLinkVisualizer lineContactMode "\"rectangular\""
attr enum circular,rectangular
par QosShowcase.visualizer.dataLinkVisualizer labelFormat "\"%n\""
par QosShowcase.visualizer.dataLinkVisualizer labelFont "\"<default>, 8px\""
par QosShowcase.visualizer.dataLinkVisualizer labelColor "\"darkcyan\""
par QosShowcase.visualizer.dataLinkVisualizer fadeOutMode "\"realTime\""
attr enum realTime,animationTime,simulationTime
par QosShowcase.visualizer.dataLinkVisualizer fadeOutTime 1s
attr unit s
par QosShowcase.visualizer.dataLinkVisualizer fadeOutAnimationSpeed 0
par QosShowcase.visualizer.dataLinkVisualizer holdAnimationTime 0s
attr unit s
par QosShowcase.visualizer.dataLinkVisualizer zIndex 2
par QosShowcase.visualizer.linkBreakVisualizer typename "\"inet.visualizer.canvas.linklayer.LinkBreakCanvasVisualizer\""
par QosShowcase.visualizer.linkBreakVisualizer visualizationTargetModule "\"^.^\""
par QosShowcase.visualizer.linkBreakVisualizer visualizationSubjectModule "\"^.^\""
par QosShowcase.visualizer.linkBreakVisualizer tags "\"\""
par QosShowcase.visualizer.linkBreakVisualizer displayLinkBreaks false
par QosShowcase.visualizer.linkBreakVisualizer nodeFilter "\"*\""
attr mutable ""
par QosShowcase.visualizer.linkBreakVisualizer interfaceFilter "\"*\""
attr mutable ""
par QosShowcase.visualizer.linkBreakVisualizer packetFilter "(omnetpp::cValueHolder)holder: \"*\""
attr mutable ""
par QosShowcase.visualizer.linkBreakVisualizer icon "\"status/stop\""
par QosShowcase.visualizer.linkBreakVisualizer iconTintAmount 0
par QosShowcase.visualizer.linkBreakVisualizer iconTintColor "\"\""
par QosShowcase.visualizer.linkBreakVisualizer fadeOutMode "\"realTime\""
attr enum realTime,animationTime,simulationTime
par QosShowcase.visualizer.linkBreakVisualizer fadeOutTime 1s
attr unit s
par QosShowcase.visualizer.linkBreakVisualizer fadeOutAnimationSpeed 0
par QosShowcase.visualizer.linkBreakVisualizer zIndex 2
par QosShowcase.visualizer.ieee80211Visualizer typename "\"inet.visualizer.canvas.linklayer.Ieee80211CanvasVisualizer\""
par QosShowcase.visualizer.ieee80211Visualizer visualizationTargetModule "\"^.^\""
par QosShowcase.visualizer.ieee80211Visualizer visualizationSubjectModule "\"^.^\""
par QosShowcase.visualizer.ieee80211Visualizer tags "\"\""
par QosShowcase.visualizer.ieee80211Visualizer networkNodeVisualizerModule "\"^.networkNodeVisualizer\""
par QosShowcase.visualizer.ieee80211Visualizer displayAssociations false
par QosShowcase.visualizer.ieee80211Visualizer nodeFilter "\"*\""
attr mutable ""
par QosShowcase.visualizer.ieee80211Visualizer interfaceFilter "\"*\""
attr mutable ""
par QosShowcase.visualizer.ieee80211Visualizer minPower -85dBm
attr unit dBm
par QosShowcase.visualizer.ieee80211Visualizer maxPower -50dBm
attr unit dBm
par QosShowcase.visualizer.ieee80211Visualizer icons "\"misc/signal_power_0 misc/signal_power_1 misc/signal_power_2 misc/signal_power_3\""
par QosShowcase.visualizer.ieee80211Visualizer iconColor "\"dark\""
par QosShowcase.visualizer.ieee80211Visualizer labelFont "\"<default>\""
par QosShowcase.visualizer.ieee80211Visualizer labelColor "\"black\""
par QosShowcase.visualizer.ieee80211Visualizer placementHint "\"top\""
par QosShowcase.visualizer.ieee80211Visualizer placementPriority 0
par QosShowcase.visualizer.ieee80211Visualizer zIndex 2
par QosShowcase.visualizer.networkRouteVisualizer typename "\"inet.visualizer.canvas.networklayer.NetworkRouteCanvasVisualizer\""
par QosShowcase.visualizer.networkRouteVisualizer visualizationTargetModule "\"^.^\""
par QosShowcase.visualizer.networkRouteVisualizer visualizationSubjectModule "\"^.^\""
par QosShowcase.visualizer.networkRouteVisualizer tags "\"\""
par QosShowcase.visualizer.networkRouteVisualizer displayRoutes false
par QosShowcase.visualizer.networkRouteVisualizer startPathSignal "\"packetReceivedFromUpper\""
par QosShowcase.visualizer.networkRouteVisualizer extendPathSignal "\"packetReceivedFromLower\""
par QosShowcase.visualizer.networkRouteVisualizer endPathSignal "\"packetSentToUpper\""
par QosShowcase.visualizer.networkRouteVisualizer nodeFilter "\"*\""
attr mutable ""
par QosShowcase.visualizer.networkRouteVisualizer packetFilter "(omnetpp::cValueHolder)holder: \"*\""
attr mutable ""
par QosShowcase.visualizer.networkRouteVisualizer lineColor "\"dark\""
par QosShowcase.visualizer.networkRouteVisualizer lineStyle "\"solid\""
par QosShowcase.visualizer.networkRouteVisualizer lineWidth 3
par QosShowcase.visualizer.networkRouteVisualizer lineSmooth false
par QosShowcase.visualizer.networkRouteVisualizer lineShift 16
par QosShowcase.visualizer.networkRouteVisualizer lineShiftMode "\"normal\""
par QosShowcase.visualizer.networkRouteVisualizer lineContactSpacing 3
par QosShowcase.visualizer.networkRouteVisualizer lineContactMode "\"rectangular\""
attr enum circular,rectangular
par QosShowcase.visualizer.networkRouteVisualizer labelFormat "\"%n\""
par QosShowcase.visualizer.networkRouteVisualizer labelFont "\"<default>, 8px\""
par QosShowcase.visualizer.networkRouteVisualizer labelColor "\"\""
par QosShowcase.visualizer.networkRouteVisualizer fadeOutMode "\"realTime\""
attr enum realTime,animationTime,simulationTime
par QosShowcase.visualizer.networkRouteVisualizer fadeOutTime 1s
attr unit s
par QosShowcase.visualizer.networkRouteVisualizer fadeOutAnimationSpeed 0
par QosShowcase.visualizer.networkRouteVisualizer zIndex 3
par QosShowcase.visualizer.routingTableVisualizer typename "\"inet.visualizer.canvas.networklayer.RoutingTableCanvasVisualizer\""
par QosShowcase.visualizer.routingTableVisualizer visualizationTargetModule "\"^.^\""
par QosShowcase.visualizer.routingTableVisualizer visualizationSubjectModule "\"^.^\""
par QosShowcase.visualizer.routingTableVisualizer tags "\"\""
par QosShowcase.visualizer.routingTableVisualizer displayRoutingTables false
par QosShowcase.visualizer.routingTableVisualizer displayRoutesIndividually true
par QosShowcase.visualizer.routingTableVisualizer displayLabels true
par QosShowcase.visualizer.routingTableVisualizer destinationFilter "\"*\""
attr mutable ""
par QosShowcase.visualizer.routingTableVisualizer nodeFilter "\"*\""
attr mutable ""
par QosShowcase.visualizer.routingTableVisualizer multicastSourceNodeFilter "\"*\""
attr mutable ""
par QosShowcase.visualizer.routingTableVisualizer multicastSourceAddressFilter "\"*\""
attr mutable ""
par QosShowcase.visualizer.routingTableVisualizer multicastGroupFilter "\"*\""
attr mutable ""
par QosShowcase.visualizer.routingTableVisualizer lineColor "\"black\""
par QosShowcase.visualizer.routingTableVisualizer lineStyle "\"solid\""
par QosShowcase.visualizer.routingTableVisualizer lineWidth 2
par QosShowcase.visualizer.routingTableVisualizer lineShift 16
par QosShowcase.visualizer.routingTableVisualizer lineShiftMode "\"normal\""
par QosShowcase.visualizer.routingTableVisualizer lineContactSpacing 3
par QosShowcase.visualizer.routingTableVisualizer lineContactMode "\"rectangular\""
attr enum circular,rectangular
par QosShowcase.visualizer.routingTableVisualizer labelFormat "\"%d/%m -> %g (%n)\""
attr mutable ""
par QosShowcase.visualizer.routingTableVisualizer labelFont "\"<default>, 8px\""
par QosShowcase.visualizer.routingTableVisualizer labelColor "\"black\""
par QosShowcase.visualizer.routingTableVisualizer zIndex 0
par QosShowcase.visualizer.transportRouteVisualizer typename "\"inet.visualizer.canvas.transportlayer.TransportRouteCanvasVisualizer\""
par QosShowcase.visualizer.transportRouteVisualizer visualizationTargetModule "\"^.^\""
par QosShowcase.visualizer.transportRouteVisualizer visualizationSubjectModule "\"^.^\""
par QosShowcase.visualizer.transportRouteVisualizer tags "\"\""
par QosShowcase.visualizer.transportRouteVisualizer displayRoutes false
par QosShowcase.visualizer.transportRouteVisualizer startPathSignal "\"packetReceivedFromUpper\""
par QosShowcase.visualizer.transportRouteVisualizer extendPathSignal "\"packetReceivedFromLower\""
par QosShowcase.visualizer.transportRouteVisualizer endPathSignal "\"packetSentToUpper\""
par QosShowcase.visualizer.transportRouteVisualizer nodeFilter "\"*\""
attr mutable ""
par QosShowcase.visualizer.transportRouteVisualizer packetFilter "(omnetpp::cValueHolder)holder: \"*\""
attr mutable ""
par QosShowcase.visualizer.transportRouteVisualizer lineColor "\"dark\""
par QosShowcase.visualizer.transportRouteVisualizer lineStyle "\"solid\""
par QosShowcase.visualizer.transportRouteVisualizer lineWidth 3
par QosShowcase.visualizer.transportRouteVisualizer lineSmooth false
par QosShowcase.visualizer.transportRouteVisualizer lineShift 16
par QosShowcase.visualizer.transportRouteVisualizer lineShiftMode "\"normal\""
par QosShowcase.visualizer.transportRouteVisualizer lineContactSpacing 3
par QosShowcase.visualizer.transportRouteVisualizer lineContactMode "\"rectangular\""
attr enum circular,rectangular
par QosShowcase.visualizer.transportRouteVisualizer labelFormat "\"%n\""
par QosShowcase.visualizer.transportRouteVisualizer labelFont "\"<default>, 8px\""
par QosShowcase.visualizer.transportRouteVisualizer labelColor "\"\""
par QosShowcase.visualizer.transportRouteVisualizer fadeOutMode "\"realTime\""
attr enum realTime,animationTime,simulationTime
par QosShowcase.visualizer.transportRouteVisualizer fadeOutTime 1s
attr unit s
par QosShowcase.visualizer.transportRouteVisualizer fadeOutAnimationSpeed 0
par QosShowcase.visualizer.transportRouteVisualizer zIndex 4
par QosShowcase.visualizer.transportConnectionVisualizer typename "\"inet.visualizer.canvas.transportlayer.TransportConnectionCanvasVisualizer\""
par QosShowcase.visualizer.transportConnectionVisualizer visualizationTargetModule "\"^.^\""
par QosShowcase.visualizer.transportConnectionVisualizer visualizationSubjectModule "\"^.^\""
par QosShowcase.visualizer.transportConnectionVisualizer tags "\"\""
par QosShowcase.visualizer.transportConnectionVisualizer networkNodeVisualizerModule "\"^.networkNodeVisualizer\""
par QosShowcase.visualizer.transportConnectionVisualizer displayTransportConnections false
par QosShowcase.visualizer.transportConnectionVisualizer sourceNodeFilter "\"*\""
attr mutable ""
par QosShowcase.visualizer.transportConnectionVisualizer sourcePortFilter "\"*\""
attr mutable ""
par QosShowcase.visualizer.transportConnectionVisualizer destinationNodeFilter "\"*\""
attr mutable ""
par QosShowcase.visualizer.transportConnectionVisualizer destinationPortFilter "\"*\""
attr mutable ""
par QosShowcase.visualizer.transportConnectionVisualizer icon "\"misc/marker_s\""
par QosShowcase.visualizer.transportConnectionVisualizer iconColor "\"dark\""
par QosShowcase.visualizer.transportConnectionVisualizer labelFont "\"<default>\""
par QosShowcase.visualizer.transportConnectionVisualizer labelColor "\"black\""
par QosShowcase.visualizer.transportConnectionVisualizer placementHint "\"top\""
par QosShowcase.visualizer.transportConnectionVisualizer placementPriority 0
par QosShowcase.visualizer.transportConnectionVisualizer zIndex 4
par QosShowcase.visualizer.failureProtectionConfigurationVisualizer typename "\"inet.visualizer.canvas.configurator.FailureProtectionConfigurationCanvasVisualizer\""
par QosShowcase.visualizer.failureProtectionConfigurationVisualizer visualizationTargetModule "\"^.^\""
par QosShowcase.visualizer.failureProtectionConfigurationVisualizer visualizationSubjectModule "\"^.^\""
par QosShowcase.visualizer.failureProtectionConfigurationVisualizer tags "\"\""
par QosShowcase.visualizer.failureProtectionConfigurationVisualizer displayTrees false
par QosShowcase.visualizer.failureProtectionConfigurationVisualizer lineColor "\"dark\""
par QosShowcase.visualizer.failureProtectionConfigurationVisualizer lineStyle "\"solid\""
par QosShowcase.visualizer.failureProtectionConfigurationVisualizer lineWidth 3
par QosShowcase.visualizer.failureProtectionConfigurationVisualizer lineSmooth false
par QosShowcase.visualizer.failureProtectionConfigurationVisualizer lineShift 16
par QosShowcase.visualizer.failureProtectionConfigurationVisualizer lineShiftMode "\"normal\""
par QosShowcase.visualizer.failureProtectionConfigurationVisualizer lineContactSpacing 3
par QosShowcase.visualizer.failureProtectionConfigurationVisualizer lineContactMode "\"rectangular\""
attr enum circular,rectangular
par QosShowcase.visualizer.failureProtectionConfigurationVisualizer failureProtectionConfiguratorModule "\"failureProtectionConfigurator\""
par QosShowcase.visualizer.failureProtectionConfigurationVisualizer streamFilter "\"*\""
par QosShowcase.visualizer.failureProtectionConfigurationVisualizer zIndex 3
par QosShowcase.visualizer.streamRedundancyConfigurationVisualizer typename "\"inet.visualizer.canvas.configurator.StreamRedundancyConfigurationCanvasVisualizer\""
par QosShowcase.visualizer.streamRedundancyConfigurationVisualizer visualizationTargetModule "\"^.^\""
par QosShowcase.visualizer.streamRedundancyConfigurationVisualizer visualizationSubjectModule "\"^.^\""
par QosShowcase.visualizer.streamRedundancyConfigurationVisualizer tags "\"\""
par QosShowcase.visualizer.streamRedundancyConfigurationVisualizer displayTrees false
par QosShowcase.visualizer.streamRedundancyConfigurationVisualizer lineColor "\"dark\""
par QosShowcase.visualizer.streamRedundancyConfigurationVisualizer lineStyle "\"solid\""
par QosShowcase.visualizer.streamRedundancyConfigurationVisualizer lineWidth 3
par QosShowcase.visualizer.streamRedundancyConfigurationVisualizer lineSmooth false
par QosShowcase.visualizer.streamRedundancyConfigurationVisualizer lineShift 16
par QosShowcase.visualizer.streamRedundancyConfigurationVisualizer lineShiftMode "\"normal\""
par QosShowcase.visualizer.streamRedundancyConfigurationVisualizer lineContactSpacing 3
par QosShowcase.visualizer.streamRedundancyConfigurationVisualizer lineContactMode "\"rectangular\""
attr enum circular,rectangular
par QosShowcase.visualizer.streamRedundancyConfigurationVisualizer streamRedundancyConfiguratorModule "\"streamRedundancyConfigurator\""
par QosShowcase.visualizer.streamRedundancyConfigurationVisualizer streamFilter "\"*\""
par QosShowcase.visualizer.streamRedundancyConfigurationVisualizer zIndex 3
par QosShowcase.visualizer.channelVisualizer typename "\"inet.visualizer.canvas.physicallayer.ChannelCanvasVisualizer\""
par QosShowcase.visualizer.channelVisualizer visualizationTargetModule "\"^.^\""
par QosShowcase.visualizer.channelVisualizer visualizationSubjectModule "\"^.^\""
par QosShowcase.visualizer.channelVisualizer tags "\"\""
par QosShowcase.visualizer.channelVisualizer displayChannelActivity false
par QosShowcase.visualizer.channelVisualizer nodeFilter "\"*\""
attr mutable ""
par QosShowcase.visualizer.channelVisualizer packetFilter "(omnetpp::cValueHolder)holder: \"*\""
attr mutable ""
par QosShowcase.visualizer.channelVisualizer lineColor "\"blue\""
par QosShowcase.visualizer.channelVisualizer lineStyle "\"solid\""
par QosShowcase.visualizer.channelVisualizer lineWidth 3
par QosShowcase.visualizer.channelVisualizer lineShift 16
par QosShowcase.visualizer.channelVisualizer lineShiftMode "\"normal\""
par QosShowcase.visualizer.channelVisualizer lineContactSpacing 3
par QosShowcase.visualizer.channelVisualizer lineContactMode "\"rectangular\""
attr enum circular,rectangular
par QosShowcase.visualizer.channelVisualizer labelFormat "\"%n\""
par QosShowcase.visualizer.channelVisualizer labelFont "\"<default>, 8px\""
par QosShowcase.visualizer.channelVisualizer labelColor "\"blue\""
par QosShowcase.visualizer.channelVisualizer fadeOutMode "\"realTime\""
attr enum realTime,animationTime,simulationTime
par QosShowcase.visualizer.channelVisualizer fadeOutTime 1s
attr unit s
par QosShowcase.visualizer.channelVisualizer fadeOutAnimationSpeed 0
par QosShowcase.visualizer.channelVisualizer holdAnimationTime 0s
attr unit s
par QosShowcase.visualizer.channelVisualizer zIndex 1
par QosShowcase.visualizer typename "\"inet.visualizer.canvas.integrated.IntegratedCanvasVisualizer\""
par QosShowcase typename "\"qos_implementation.simulations.QosShowcase\""

