version 3
run QosIPv6-0-20250408-18:50:08-17572
attr configname QosIPv6
attr datetime 20250408-18:50:08
attr datetimef 20250408-185008
attr experiment QosIPv6
attr inifile omnetpp.ini
attr iterationvars ""
attr iterationvarsd ""
attr iterationvarsf ""
attr measurement ""
attr network QosShowcaseIPv6
attr processid 17572
attr repetition 0
attr replication #0
attr resultdir results
attr runnumber 0
attr seedset 0
config image-path ../../inet-master/images
config extends NonQosIPv6
config *.*.wlan[*].mac.qosStation true
config *.*.wlan[*].classifier.typename QosClassifier
config network QosShowcaseIPv6
config sim-time-limit 100s
config *.ap.hasIpv4 false
config *.server.hasIpv4 false
config *.client.hasIpv4 false
config *.ap.hasIpv6 true
config *.server.hasIpv6 true
config *.client.hasIpv6 true
config *.configurator.assignAddresses true
config *.configurator.useAutoConfig true
config *.configurator.addStaticRoutes false
config *.wlan[*].mac.typename Ieee80211eMac
config *.*.wlan[*].bitrate 54Mbps
config *.client.numApps 4
config *.client.app[*].typename UdpBasicApp
config *.client.app[*].destAddresses "\"server\""
config *.client.app[*].startTime 1.0s+this.sendInterval*index/4
config *.client.app[*].stopTime 100.0s
config *.client.app[0].destPort 21
config *.client.app[1].destPort 80
config *.client.app[2].destPort 4000
config *.client.app[3].destPort 5000
config *.client.app[0].packetName "\"background\""
config *.client.app[1].packetName "\"best effort\""
config *.client.app[2].packetName "\"video\""
config *.client.app[3].packetName "\"voice\""
config *.server.numApps 4
config *.server.app[*].typename UdpSink
config *.server.app[0].localPort 21
config *.server.app[1].localPort 80
config *.server.app[2].localPort 4000
config *.server.app[3].localPort 5000
config *.client.app[0].messageLength 900B
config *.client.app[0].sendInterval normal(300us,10us)
config *.client.app[1].messageLength 900B
config *.client.app[1].sendInterval normal(250us,10us)
config *.client.app[2].messageLength 600B
config *.client.app[2].sendInterval normal(1ms,10us)
config *.client.app[3].messageLength 125B
config *.client.app[3].sendInterval normal(10ms,10us)
config *.client.app[*].recordScalar true
config *.client.app[*].recordVector true
config *.server.app[*].recordScalar true
config *.server.app[*].recordVector true

par QosShowcaseIPv6.configurator typename "\"inet.networklayer.configurator.ipv6.Ipv6FlatNetworkConfigurator\""
par QosShowcaseIPv6.ap.radioIn[0].channel typename "\"ned.IdealChannel\""
par QosShowcaseIPv6.ap.interfaceTable typename "\"inet.networklayer.common.InterfaceTable\""
par QosShowcaseIPv6.ap.interfaceTable displayAddresses false
par QosShowcaseIPv6.ap.macTable typename "\"inet.linklayer.ethernet.common.MacForwardingTable\""
par QosShowcaseIPv6.ap.macTable agingTime 120s
attr unit s
par QosShowcaseIPv6.ap.macTable forwardingTable []
attr mutable ""
par QosShowcaseIPv6.ap.macTable forwardingTableFile "\"\""
par QosShowcaseIPv6.ap.macTable interfaceTableModule "\"QosShowcaseIPv6.ap.interfaceTable\""
par QosShowcaseIPv6.ap.macTable displayStringTextFormat "\"addr: %a\\nvlan: %v\""
par QosShowcaseIPv6.ap.mobility typename "\"inet.mobility.static.StationaryMobility\""
par QosShowcaseIPv6.ap.mobility subjectModule "\"^\""
par QosShowcaseIPv6.ap.mobility coordinateSystemModule "\"\""
par QosShowcaseIPv6.ap.mobility displayStringTextFormat "\"p: %p\\nv: %v\""
attr mutable ""
par QosShowcaseIPv6.ap.mobility updateDisplayString true
par QosShowcaseIPv6.ap.mobility constraintAreaMinX "-inf m"
attr unit m
par QosShowcaseIPv6.ap.mobility constraintAreaMinY "-inf m"
attr unit m
par QosShowcaseIPv6.ap.mobility constraintAreaMinZ "-inf m"
attr unit m
par QosShowcaseIPv6.ap.mobility constraintAreaMaxX "inf m"
attr unit m
par QosShowcaseIPv6.ap.mobility constraintAreaMaxY "inf m"
attr unit m
par QosShowcaseIPv6.ap.mobility constraintAreaMaxZ "inf m"
attr unit m
par QosShowcaseIPv6.ap.mobility initialX "nan m"
attr unit m
par QosShowcaseIPv6.ap.mobility initialY "nan m"
attr unit m
par QosShowcaseIPv6.ap.mobility initialZ 0m
attr unit m
par QosShowcaseIPv6.ap.mobility initialLatitude "nan deg"
attr unit deg
par QosShowcaseIPv6.ap.mobility initialLongitude "nan deg"
attr unit deg
par QosShowcaseIPv6.ap.mobility initialAltitude 0m
attr unit m
par QosShowcaseIPv6.ap.mobility initialHeading 0deg
attr unit deg
par QosShowcaseIPv6.ap.mobility initialElevation 0deg
attr unit deg
par QosShowcaseIPv6.ap.mobility initialBank 0deg
attr unit deg
par QosShowcaseIPv6.ap.mobility initFromDisplayString true
par QosShowcaseIPv6.ap.mobility updateFromDisplayString true
par QosShowcaseIPv6.ap.li typename "\"inet.common.MessageDispatcher\""
par QosShowcaseIPv6.ap.li displayStringTextFormat "\"processed %p pk (%l)\""
par QosShowcaseIPv6.ap.li interfaceTableModule "\"QosShowcaseIPv6.ap.interfaceTable\""
par QosShowcaseIPv6.ap.li forwardServiceRegistration true
par QosShowcaseIPv6.ap.li forwardProtocolRegistration true
par QosShowcaseIPv6.ap.li interfaceMapping {}
par QosShowcaseIPv6.ap.li serviceMapping {}
par QosShowcaseIPv6.ap.li protocolMapping {}
par QosShowcaseIPv6.ap.wlan[0].radioIn.channel typename "\"ned.IdealChannel\""
par QosShowcaseIPv6.ap.wlan[0].llc.upperLayerOut.channel typename "\"ned.IdealChannel\""
par QosShowcaseIPv6.ap.wlan[0].classifier.out.channel typename "\"ned.IdealChannel\""
par QosShowcaseIPv6.ap.wlan[0].upperLayerIn.channel typename "\"ned.IdealChannel\""
par QosShowcaseIPv6.ap.wlan[0].mib typename "\"inet.linklayer.ieee80211.mib.Ieee80211Mib\""
par QosShowcaseIPv6.ap.wlan[0].llc typename "\"inet.linklayer.ieee80211.portal.Ieee80211Portal\""
par QosShowcaseIPv6.ap.wlan[0].llc fcsMode "\"declared\""
attr enum declared,computed
par QosShowcaseIPv6.ap.wlan[0].classifier typename "\"inet.linklayer.common.QosClassifier\""
par QosShowcaseIPv6.ap.wlan[0].classifier ipProtocolUpMap "\"1 BE 58 BE\""
par QosShowcaseIPv6.ap.wlan[0].classifier udpPortUpMap "\"21 BK 80 BE 4000 VI 5000 VO\""
par QosShowcaseIPv6.ap.wlan[0].classifier tcpPortUpMap "\"21 BK 80 BE 4000 VI 5000 VO\""
par QosShowcaseIPv6.ap.wlan[0].classifier defaultUp "\"BE\""
par QosShowcaseIPv6.ap.wlan[0].mgmt typename "\"inet.linklayer.ieee80211.mgmt.Ieee80211MgmtAp\""
par QosShowcaseIPv6.ap.wlan[0].mgmt ssid "\"SSID\""
par QosShowcaseIPv6.ap.wlan[0].mgmt beaconInterval 0.1s
attr unit s
par QosShowcaseIPv6.ap.wlan[0].mgmt numAuthSteps 4
par QosShowcaseIPv6.ap.wlan[0].mgmt interfaceTableModule "\"QosShowcaseIPv6.ap.interfaceTable\""
par QosShowcaseIPv6.ap.wlan[0].mgmt radioModule "\"^.radio\""
par QosShowcaseIPv6.ap.wlan[0].mgmt mibModule "\"QosShowcaseIPv6.ap.wlan[0].mib\""
par QosShowcaseIPv6.ap.wlan[0].mgmt macModule "\"QosShowcaseIPv6.ap.wlan[0].mac\""
par QosShowcaseIPv6.ap.wlan[0].mac.dcf.channelAccess.pendingQueue typename "\"inet.linklayer.ieee80211.mac.queue.PendingQueue\""
par QosShowcaseIPv6.ap.wlan[0].mac.dcf.channelAccess.pendingQueue displayStringTextFormat "\"contains %p pk (%l) pushed %u\\npulled %o removed %r dropped %d\""
par QosShowcaseIPv6.ap.wlan[0].mac.dcf.channelAccess.pendingQueue packetCapacity 100
par QosShowcaseIPv6.ap.wlan[0].mac.dcf.channelAccess.pendingQueue dataCapacity -1b
attr unit b
par QosShowcaseIPv6.ap.wlan[0].mac.dcf.channelAccess.pendingQueue dropperClass "\"inet::queueing::PacketAtCollectionEndDropper\""
par QosShowcaseIPv6.ap.wlan[0].mac.dcf.channelAccess.pendingQueue comparatorClass "\"inet::ieee80211::MgmtOverDataComparator\""
par QosShowcaseIPv6.ap.wlan[0].mac.dcf.channelAccess.pendingQueue bufferModule "\"\""
scalar QosShowcaseIPv6.ap.wlan[0].mac.dcf.channelAccess.pendingQueue queueLength:last 0
attr autoWarmupFilter false
attr interpolationmode sample-hold
attr recordingmode last
attr source "warmup(atomic(constant0(packetPushEnded) + count(packetPushStarted) - count(packetPulled) - count(packetRemoved) - count(packetDropped)))"
attr title "queue length, last"
attr unit pk
scalar QosShowcaseIPv6.ap.wlan[0].mac.dcf.channelAccess.pendingQueue queueLength:max 0
attr autoWarmupFilter false
attr interpolationmode sample-hold
attr recordingmode max
attr source "warmup(atomic(constant0(packetPushEnded) + count(packetPushStarted) - count(packetPulled) - count(packetRemoved) - count(packetDropped)))"
attr title "queue length, max"
attr unit pk
scalar QosShowcaseIPv6.ap.wlan[0].mac.dcf.channelAccess.pendingQueue queueLength:timeavg 0
attr autoWarmupFilter false
attr interpolationmode sample-hold
attr recordingmode timeavg
attr source "warmup(atomic(constant0(packetPushEnded) + count(packetPushStarted) - count(packetPulled) - count(packetRemoved) - count(packetDropped)))"
attr title "queue length, timeavg"
attr unit pk
scalar QosShowcaseIPv6.ap.wlan[0].mac.dcf.channelAccess.pendingQueue queueBitLength:last 0
attr autoWarmupFilter false
attr interpolationmode sample-hold
attr recordingmode last
attr source "warmup(atomic(constant0(packetPushEnded) + sum(packetLength(packetPushStarted)) - sum(packetLength(packetPulled)) - sum(packetLength(packetRemoved)) - sum(packetLength(packetDropped))))"
attr title "queue bit length, last"
attr unit b
scalar QosShowcaseIPv6.ap.wlan[0].mac.dcf.channelAccess.pendingQueue queueBitLength:max 0
attr autoWarmupFilter false
attr interpolationmode sample-hold
attr recordingmode max
attr source "warmup(atomic(constant0(packetPushEnded) + sum(packetLength(packetPushStarted)) - sum(packetLength(packetPulled)) - sum(packetLength(packetRemoved)) - sum(packetLength(packetDropped))))"
attr title "queue bit length, max"
attr unit b
scalar QosShowcaseIPv6.ap.wlan[0].mac.dcf.channelAccess.pendingQueue queueBitLength:timeavg 0
attr autoWarmupFilter false
attr interpolationmode sample-hold
attr recordingmode timeavg
attr source "warmup(atomic(constant0(packetPushEnded) + sum(packetLength(packetPushStarted)) - sum(packetLength(packetPulled)) - sum(packetLength(packetRemoved)) - sum(packetLength(packetDropped))))"
attr title "queue bit length, timeavg"
attr unit b
statistic QosShowcaseIPv6.ap.wlan[0].mac.dcf.channelAccess.pendingQueue queueingTime:histogram
field count 0
field mean nan
field stddev nan
field min nan
field max nan
field sum 0
field sqrsum 0
attr interpolationmode none
attr recordingmode histogram
attr source queueingTime(packetPulled)
attr title "queueing times"
attr unit s
bin	-inf	0
bin	0	0
bin	1	0
scalar QosShowcaseIPv6.ap.wlan[0].mac.dcf.channelAccess.pendingQueue outgoingPackets:count 0
attr recordingmode count
attr source packetPulled
attr title "outgoing packets, count"
attr unit pk
scalar QosShowcaseIPv6.ap.wlan[0].mac.dcf.channelAccess.pendingQueue outgoingPacketLengths:sum 0
attr interpolationmode none
attr recordingmode sum
attr source packetLength(packetPulled)
attr title "outgoing packet lengths, sum"
attr unit b
statistic QosShowcaseIPv6.ap.wlan[0].mac.dcf.channelAccess.pendingQueue outgoingPacketLengths:histogram
field count 0
field mean nan
field stddev nan
field min nan
field max nan
field sum 0
field sqrsum 0
attr interpolationmode none
attr recordingmode histogram
attr source packetLength(packetPulled)
attr title "outgoing packet lengths"
attr unit b
bin	-inf	0
bin	0	0
bin	1	0
statistic QosShowcaseIPv6.ap.wlan[0].mac.dcf.channelAccess.pendingQueue flowQueueingTime:histogram
field count 0
field mean nan
field stddev nan
field min nan
field max nan
field sum 0
field sqrsum 0
attr interpolationmode none
attr recordingmode histogram
attr source queueingTime(demuxFlow(packetPulled))
attr title "flow queueing times"
attr unit s
bin	-inf	0
bin	0	0
bin	1	0
scalar QosShowcaseIPv6.ap.wlan[0].mac.dcf.channelAccess.pendingQueue incomingPackets:count 0
attr recordingmode count
attr source packetPushStarted
attr title "incoming packets, count"
attr unit pk
scalar QosShowcaseIPv6.ap.wlan[0].mac.dcf.channelAccess.pendingQueue incomingPacketLengths:sum 0
attr interpolationmode none
attr recordingmode sum
attr source packetLength(packetPushStarted)
attr title "incoming packet lengths, sum"
attr unit b
statistic QosShowcaseIPv6.ap.wlan[0].mac.dcf.channelAccess.pendingQueue incomingPacketLengths:histogram
field count 0
field mean nan
field stddev nan
field min nan
field max nan
field sum 0
field sqrsum 0
attr interpolationmode none
attr recordingmode histogram
attr source packetLength(packetPushStarted)
attr title "incoming packet lengths"
attr unit b
bin	-inf	0
bin	0	0
bin	1	0
scalar QosShowcaseIPv6.ap.wlan[0].mac.dcf.channelAccess.pendingQueue droppedPacketsQueueOverflow:count 0
attr interpolationmode none
attr recordingmode count
attr source packetDropReasonIsQueueOverflow(packetDropped)
attr title "dropped packets: queue overflow, count"
attr unit pk
scalar QosShowcaseIPv6.ap.wlan[0].mac.dcf.channelAccess.pendingQueue droppedPacketLengthsQueueOverflow:sum 0
attr interpolationmode none
attr recordingmode sum
attr source packetLength(packetDropReasonIsQueueOverflow(packetDropped))
attr title "dropped packet lengths: queue overflow, sum"
attr unit b
par QosShowcaseIPv6.ap.wlan[0].mac.dcf.channelAccess.inProgressFrames typename "\"inet.linklayer.ieee80211.mac.queue.InProgressFrames\""
par QosShowcaseIPv6.ap.wlan[0].mac.dcf.channelAccess.inProgressFrames pendingQueueModule "\"^.pendingQueue\""
par QosShowcaseIPv6.ap.wlan[0].mac.dcf.channelAccess.inProgressFrames originatorMacDataServiceModule "\"^.^.originatorMacDataService\""
par QosShowcaseIPv6.ap.wlan[0].mac.dcf.channelAccess.inProgressFrames ackHandlerModule "\"^.^.ackHandler\""
statistic QosShowcaseIPv6.ap.wlan[0].mac.dcf.channelAccess.inProgressFrames queueingTime:histogram
field count 0
field mean nan
field stddev nan
field min nan
field max nan
field sum 0
field sqrsum 0
attr interpolationmode none
attr recordingmode histogram
attr source queueingTime(packetDequeued)
attr title "queueing times"
bin	-inf	0
bin	0	0
bin	1	0
scalar QosShowcaseIPv6.ap.wlan[0].mac.dcf.channelAccess.inProgressFrames queueLength:max 0
attr autoWarmupFilter false
attr interpolationmode sample-hold
attr recordingmode max
attr source "warmup(count(packetEnqueued) - count(packetDequeued))"
attr title "queue length, max"
scalar QosShowcaseIPv6.ap.wlan[0].mac.dcf.channelAccess.inProgressFrames queueLength:timeavg 0
attr autoWarmupFilter false
attr interpolationmode sample-hold
attr recordingmode timeavg
attr source "warmup(count(packetEnqueued) - count(packetDequeued))"
attr title "queue length, timeavg"
par QosShowcaseIPv6.ap.wlan[0].mac.dcf.channelAccess.contention typename "\"inet.linklayer.ieee80211.mac.contention.Contention\""
par QosShowcaseIPv6.ap.wlan[0].mac.dcf.channelAccess.contention initialChannelBusy true
par QosShowcaseIPv6.ap.wlan[0].mac.dcf.channelAccess.contention backoffOptimization true
scalar QosShowcaseIPv6.ap.wlan[0].mac.dcf.channelAccess.contention channelAccessGranted:count 0
attr recordingmode count
attr title "channel access granted, count"
scalar QosShowcaseIPv6.ap.wlan[0].mac.dcf.channelAccess.contention stateChanged:count 18556
attr enum IDLE,DEFER,IFS_AND_BACKOFF
attr interpolationmode none
attr recordingmode count
attr title "contention state changed, count"
attr type enum
par QosShowcaseIPv6.ap.wlan[0].mac.dcf.channelAccess typename "\"inet.linklayer.ieee80211.mac.channelaccess.Dcaf\""
par QosShowcaseIPv6.ap.wlan[0].mac.dcf.channelAccess difsn -1
par QosShowcaseIPv6.ap.wlan[0].mac.dcf.channelAccess cwMin -1
par QosShowcaseIPv6.ap.wlan[0].mac.dcf.channelAccess cwMax -1
par QosShowcaseIPv6.ap.wlan[0].mac.dcf.channelAccess rxModule "\"^.^.rx\""
scalar QosShowcaseIPv6.ap.wlan[0].mac.dcf.channelAccess channelOwnershipChanged:count 0
attr interpolationmode sample-hold
attr recordingmode count
attr title "channel ownership, count"
par QosShowcaseIPv6.ap.wlan[0].mac.dcf.originatorMacDataService.fragmentationPolicy typename "\"inet.linklayer.ieee80211.mac.fragmentation.BasicFragmentationPolicy\""
par QosShowcaseIPv6.ap.wlan[0].mac.dcf.originatorMacDataService.fragmentationPolicy fragmentationThreshold 1500B
attr unit B
par QosShowcaseIPv6.ap.wlan[0].mac.dcf.originatorMacDataService typename "\"inet.linklayer.ieee80211.mac.originator.OriginatorMacDataService\""
scalar QosShowcaseIPv6.ap.wlan[0].mac.dcf.originatorMacDataService packetAggregated:count 0
attr recordingmode count
attr title "packets aggregated, count"
scalar QosShowcaseIPv6.ap.wlan[0].mac.dcf.originatorMacDataService packetFragmented:count 0
attr recordingmode count
attr title "packets fragmented, count"
par QosShowcaseIPv6.ap.wlan[0].mac.dcf.recipientMacDataService typename "\"inet.linklayer.ieee80211.mac.recipient.RecipientMacDataService\""
scalar QosShowcaseIPv6.ap.wlan[0].mac.dcf.recipientMacDataService packetDropDuplicateDetected:count 0
attr interpolationmode none
attr recordingmode count
attr source packetDropReasonIsDuplicateDetected(packetDropped)
attr title "packet drops: duplicate detected, count"
scalar QosShowcaseIPv6.ap.wlan[0].mac.dcf.recipientMacDataService packetDropDuplicateDetected:sum(packetBytes) 0
attr interpolationmode none
attr recordingmode sum(packetBytes)
attr source packetDropReasonIsDuplicateDetected(packetDropped)
attr title "packet drops: duplicate detected, sum(packetBytes)"
scalar QosShowcaseIPv6.ap.wlan[0].mac.dcf.recipientMacDataService packetDeaggregated:count 0
attr recordingmode count
attr title "packets deaggregated, count"
scalar QosShowcaseIPv6.ap.wlan[0].mac.dcf.recipientMacDataService packetDefragmented:count 0
attr recordingmode count
attr title "packets defragmented, count"
par QosShowcaseIPv6.ap.wlan[0].mac.dcf.rateSelection typename "\"inet.linklayer.ieee80211.mac.rateselection.RateSelection\""
par QosShowcaseIPv6.ap.wlan[0].mac.dcf.rateSelection rateControlModule "\"^.rateControl\""
par QosShowcaseIPv6.ap.wlan[0].mac.dcf.rateSelection multicastFrameBitrate -1bps
attr unit bps
par QosShowcaseIPv6.ap.wlan[0].mac.dcf.rateSelection responseAckFrameBitrate -1bps
attr unit bps
par QosShowcaseIPv6.ap.wlan[0].mac.dcf.rateSelection responseCtsFrameBitrate -1bps
attr unit bps
par QosShowcaseIPv6.ap.wlan[0].mac.dcf.rateSelection dataFrameBitrate 5.4e+07bps
attr unit bps
par QosShowcaseIPv6.ap.wlan[0].mac.dcf.rateSelection dataFrameBandwidth "nan Hz"
attr unit Hz
par QosShowcaseIPv6.ap.wlan[0].mac.dcf.rateSelection dataFrameNumSpatialStreams -1
par QosShowcaseIPv6.ap.wlan[0].mac.dcf.rateSelection mgmtFrameBitrate -1bps
attr unit bps
par QosShowcaseIPv6.ap.wlan[0].mac.dcf.rateSelection controlFrameBitrate -1bps
attr unit bps
par QosShowcaseIPv6.ap.wlan[0].mac.dcf.recoveryProcedure typename "\"inet.linklayer.ieee80211.mac.originator.NonQosRecoveryProcedure\""
par QosShowcaseIPv6.ap.wlan[0].mac.dcf.recoveryProcedure cwCalculatorModule "\"^.channelAccess\""
par QosShowcaseIPv6.ap.wlan[0].mac.dcf.recoveryProcedure rtsPolicyModule "\"^.rtsPolicy\""
par QosShowcaseIPv6.ap.wlan[0].mac.dcf.recoveryProcedure shortRetryLimit 7
par QosShowcaseIPv6.ap.wlan[0].mac.dcf.recoveryProcedure longRetryLimit 4
scalar QosShowcaseIPv6.ap.wlan[0].mac.dcf.recoveryProcedure retryLimitReached:count 0
attr recordingmode count
attr title "retry limit reached, count"
par QosShowcaseIPv6.ap.wlan[0].mac.dcf.originatorProtectionMechanism typename "\"inet.linklayer.ieee80211.mac.protectionmechanism.OriginatorProtectionMechanism\""
par QosShowcaseIPv6.ap.wlan[0].mac.dcf.originatorProtectionMechanism rateSelectionModule "\"^.rateSelection\""
par QosShowcaseIPv6.ap.wlan[0].mac.dcf.ackHandler typename "\"inet.linklayer.ieee80211.mac.originator.AckHandler\""
par QosShowcaseIPv6.ap.wlan[0].mac.dcf.originatorAckPolicy typename "\"inet.linklayer.ieee80211.mac.originator.OriginatorAckPolicy\""
par QosShowcaseIPv6.ap.wlan[0].mac.dcf.originatorAckPolicy rateSelectionModule "\"^.rateSelection\""
par QosShowcaseIPv6.ap.wlan[0].mac.dcf.originatorAckPolicy ackTimeout -1s
attr unit s
par QosShowcaseIPv6.ap.wlan[0].mac.dcf.recipientAckPolicy typename "\"inet.linklayer.ieee80211.mac.recipient.RecipientAckPolicy\""
par QosShowcaseIPv6.ap.wlan[0].mac.dcf.recipientAckPolicy rateSelectionModule "\"^.rateSelection\""
par QosShowcaseIPv6.ap.wlan[0].mac.dcf.rtsPolicy typename "\"inet.linklayer.ieee80211.mac.originator.RtsPolicy\""
par QosShowcaseIPv6.ap.wlan[0].mac.dcf.rtsPolicy rateSelectionModule "\"^.rateSelection\""
par QosShowcaseIPv6.ap.wlan[0].mac.dcf.rtsPolicy ctsTimeout -1s
attr unit s
par QosShowcaseIPv6.ap.wlan[0].mac.dcf.rtsPolicy rtsThreshold 2346B
attr unit B
par QosShowcaseIPv6.ap.wlan[0].mac.dcf.ctsPolicy typename "\"inet.linklayer.ieee80211.mac.recipient.CtsPolicy\""
par QosShowcaseIPv6.ap.wlan[0].mac.dcf.ctsPolicy rxModule "\"^.^.rx\""
par QosShowcaseIPv6.ap.wlan[0].mac.dcf.ctsPolicy rateSelectionModule "\"^.rateSelection\""
par QosShowcaseIPv6.ap.wlan[0].mac.dcf typename "\"inet.linklayer.ieee80211.mac.coordinationfunction.Dcf\""
par QosShowcaseIPv6.ap.wlan[0].mac.dcf rxModule "\"^.rx\""
par QosShowcaseIPv6.ap.wlan[0].mac.dcf txModule "\"^.tx\""
scalar QosShowcaseIPv6.ap.wlan[0].mac.dcf packetReceivedFromPeer:count 0
attr interpolationmode none
attr recordingmode count
attr title "packets received, count"
scalar QosShowcaseIPv6.ap.wlan[0].mac.dcf packetReceivedFromPeer:sum(packetBytes) 0
attr interpolationmode none
attr recordingmode sum(packetBytes)
attr title "packets received, sum(packetBytes)"
scalar QosShowcaseIPv6.ap.wlan[0].mac.dcf packetReceivedFromPeerUnicast:count 0
attr interpolationmode none
attr recordingmode count
attr source ieee80211Unicast(packetReceivedFromPeer)
attr title "packets received: unicast, count"
scalar QosShowcaseIPv6.ap.wlan[0].mac.dcf packetReceivedFromPeerUnicast:sum(packetBytes) 0
attr interpolationmode none
attr recordingmode sum(packetBytes)
attr source ieee80211Unicast(packetReceivedFromPeer)
attr title "packets received: unicast, sum(packetBytes)"
scalar QosShowcaseIPv6.ap.wlan[0].mac.dcf packetReceivedFromPeerMulticast:count 0
attr interpolationmode none
attr recordingmode count
attr source ieee80211Multicast(packetReceivedFromPeer)
attr title "packets received: multicast, count"
scalar QosShowcaseIPv6.ap.wlan[0].mac.dcf packetReceivedFromPeerMulticast:sum(packetBytes) 0
attr interpolationmode none
attr recordingmode sum(packetBytes)
attr source ieee80211Multicast(packetReceivedFromPeer)
attr title "packets received: multicast, sum(packetBytes)"
scalar QosShowcaseIPv6.ap.wlan[0].mac.dcf packetReceivedFromPeerBroadcast:count 0
attr interpolationmode none
attr recordingmode count
attr source ieee80211Broadcast(packetReceivedFromPeer)
attr title "packets received: broadcast, count"
scalar QosShowcaseIPv6.ap.wlan[0].mac.dcf packetReceivedFromPeerBroadcast:sum(packetBytes) 0
attr interpolationmode none
attr recordingmode sum(packetBytes)
attr source ieee80211Broadcast(packetReceivedFromPeer)
attr title "packets received: broadcast, sum(packetBytes)"
scalar QosShowcaseIPv6.ap.wlan[0].mac.dcf packetReceivedFromPeerWithRetry:count 0
attr interpolationmode none
attr recordingmode count
attr source ieee80211Retry(packetReceivedFromPeer)
attr title "packets received: with retry, count"
scalar QosShowcaseIPv6.ap.wlan[0].mac.dcf packetReceivedFromPeerWithRetry:sum(packetBytes) 0
attr interpolationmode none
attr recordingmode sum(packetBytes)
attr source ieee80211Retry(packetReceivedFromPeer)
attr title "packets received: with retry, sum(packetBytes)"
scalar QosShowcaseIPv6.ap.wlan[0].mac.dcf packetReceivedFromPeerWithoutRetry:count 0
attr interpolationmode none
attr recordingmode count
attr source ieee80211NotRetry(packetReceivedFromPeer)
attr title "packets received: without retry, count"
scalar QosShowcaseIPv6.ap.wlan[0].mac.dcf packetReceivedFromPeerWithoutRetry:sum(packetBytes) 0
attr interpolationmode none
attr recordingmode sum(packetBytes)
attr source ieee80211NotRetry(packetReceivedFromPeer)
attr title "packets received: without retry, sum(packetBytes)"
scalar QosShowcaseIPv6.ap.wlan[0].mac.dcf packetSentToPeer:count 0
attr interpolationmode none
attr recordingmode count
attr title "packets sent, count"
scalar QosShowcaseIPv6.ap.wlan[0].mac.dcf packetSentToPeer:sum(packetBytes) 0
attr interpolationmode none
attr recordingmode sum(packetBytes)
attr title "packets sent, sum(packetBytes)"
scalar QosShowcaseIPv6.ap.wlan[0].mac.dcf packetSentToPeerUnicast:count 0
attr interpolationmode none
attr recordingmode count
attr source ieee80211Unicast(packetSentToPeer)
attr title "packets sent: unicast, count"
scalar QosShowcaseIPv6.ap.wlan[0].mac.dcf packetSentToPeerUnicast:sum(packetBytes) 0
attr interpolationmode none
attr recordingmode sum(packetBytes)
attr source ieee80211Unicast(packetSentToPeer)
attr title "packets sent: unicast, sum(packetBytes)"
scalar QosShowcaseIPv6.ap.wlan[0].mac.dcf packetSentToPeerMulticast:count 0
attr interpolationmode none
attr recordingmode count
attr source ieee80211Multicast(packetSentToPeer)
attr title "packets sent: multicast, count"
scalar QosShowcaseIPv6.ap.wlan[0].mac.dcf packetSentToPeerMulticast:sum(packetBytes) 0
attr interpolationmode none
attr recordingmode sum(packetBytes)
attr source ieee80211Multicast(packetSentToPeer)
attr title "packets sent: multicast, sum(packetBytes)"
scalar QosShowcaseIPv6.ap.wlan[0].mac.dcf packetSentToPeerBroadcast:count 0
attr interpolationmode none
attr recordingmode count
attr source ieee80211Broadcast(packetSentToPeer)
attr title "packets sent: broadcast , count"
scalar QosShowcaseIPv6.ap.wlan[0].mac.dcf packetSentToPeerBroadcast:sum(packetBytes) 0
attr interpolationmode none
attr recordingmode sum(packetBytes)
attr source ieee80211Broadcast(packetSentToPeer)
attr title "packets sent: broadcast , sum(packetBytes)"
scalar QosShowcaseIPv6.ap.wlan[0].mac.dcf packetSentToPeerWithRetry:count 0
attr interpolationmode none
attr recordingmode count
attr source ieee80211Retry(packetSentToPeer)
attr title "packets sent: with retry, count"
scalar QosShowcaseIPv6.ap.wlan[0].mac.dcf packetSentToPeerWithRetry:sum(packetBytes) 0
attr interpolationmode none
attr recordingmode sum(packetBytes)
attr source ieee80211Retry(packetSentToPeer)
attr title "packets sent: with retry, sum(packetBytes)"
scalar QosShowcaseIPv6.ap.wlan[0].mac.dcf packetSentToPeerWithoutRetry:count 0
attr interpolationmode none
attr recordingmode count
attr source ieee80211NotRetry(packetSentToPeer)
attr title "packets sent: without retry, count"
scalar QosShowcaseIPv6.ap.wlan[0].mac.dcf packetSentToPeerWithoutRetry:sum(packetBytes) 0
attr interpolationmode none
attr recordingmode sum(packetBytes)
attr source ieee80211NotRetry(packetSentToPeer)
attr title "packets sent: without retry, sum(packetBytes)"
scalar QosShowcaseIPv6.ap.wlan[0].mac.dcf packetDrop:count 0
attr interpolationmode none
attr recordingmode count
attr source packetDropped
attr title "packet drops, count"
scalar QosShowcaseIPv6.ap.wlan[0].mac.dcf packetDrop:sum(packetBytes) 0
attr interpolationmode none
attr recordingmode sum(packetBytes)
attr source packetDropped
attr title "packet drops, sum(packetBytes)"
scalar QosShowcaseIPv6.ap.wlan[0].mac.dcf packetDropNotAddressedToUs:count 0
attr interpolationmode none
attr recordingmode count
attr source packetDropReasonIsNotAddressedToUs(packetDropped)
attr title "packet drops: not addressed to us, count"
scalar QosShowcaseIPv6.ap.wlan[0].mac.dcf packetDropNotAddressedToUs:sum(packetBytes) 0
attr interpolationmode none
attr recordingmode sum(packetBytes)
attr source packetDropReasonIsNotAddressedToUs(packetDropped)
attr title "packet drops: not addressed to us, sum(packetBytes)"
scalar QosShowcaseIPv6.ap.wlan[0].mac.dcf packetDropQueueOverflow:count 0
attr interpolationmode none
attr recordingmode count
attr source packetDropReasonIsQueueOverflow(packetDropped)
attr title "packet drops: queue overflow, count"
scalar QosShowcaseIPv6.ap.wlan[0].mac.dcf packetDropQueueOverflow:sum(packetBytes) 0
attr interpolationmode none
attr recordingmode sum(packetBytes)
attr source packetDropReasonIsQueueOverflow(packetDropped)
attr title "packet drops: queue overflow, sum(packetBytes)"
scalar QosShowcaseIPv6.ap.wlan[0].mac.dcf packetDropRetryLimitReached:count 0
attr interpolationmode none
attr recordingmode count
attr source packetDropReasonIsRetryLimitReached(packetDropped)
attr title "packet drops: retry limit reached, count"
scalar QosShowcaseIPv6.ap.wlan[0].mac.dcf packetDropRetryLimitReached:sum(packetBytes) 0
attr interpolationmode none
attr recordingmode sum(packetBytes)
attr source packetDropReasonIsRetryLimitReached(packetDropped)
attr title "packet drops: retry limit reached, sum(packetBytes)"
scalar QosShowcaseIPv6.ap.wlan[0].mac.dcf linkBroken:count 0
attr interpolationmode none
attr recordingmode count
attr title "link breaks, count"
scalar QosShowcaseIPv6.ap.wlan[0].mac.dcf frameSequenceFinished:count 0
attr recordingmode count
attr title "finished frame sequences, count"
statistic QosShowcaseIPv6.ap.wlan[0].mac.dcf frameSequenceDuration:histogram
field count 0
field mean nan
field stddev nan
field min nan
field max nan
field sum 0
field sqrsum 0
attr recordingmode histogram
attr source frameSequenceDuration(frameSequenceFinished)
attr title "frame sequence durations"
bin	-inf	0
bin	0	0
bin	1	0
statistic QosShowcaseIPv6.ap.wlan[0].mac.dcf frameSequenceNumPackets:histogram
field count 0
field mean nan
field stddev nan
field min nan
field max nan
field sum 0
field sqrsum 0
attr recordingmode histogram
attr source frameSequenceNumPackets(frameSequenceFinished)
attr title "frame sequences: number of packets"
bin	-inf	0
bin	0	0
bin	1	0
par QosShowcaseIPv6.ap.wlan[0].mac.hcf.edca.edcaf[0].pendingQueue typename "\"inet.linklayer.ieee80211.mac.queue.PendingQueue\""
par QosShowcaseIPv6.ap.wlan[0].mac.hcf.edca.edcaf[0].pendingQueue displayStringTextFormat "\"contains %p pk (%l) pushed %u\\npulled %o removed %r dropped %d\""
par QosShowcaseIPv6.ap.wlan[0].mac.hcf.edca.edcaf[0].pendingQueue packetCapacity 100
par QosShowcaseIPv6.ap.wlan[0].mac.hcf.edca.edcaf[0].pendingQueue dataCapacity -1b
attr unit b
par QosShowcaseIPv6.ap.wlan[0].mac.hcf.edca.edcaf[0].pendingQueue dropperClass "\"inet::queueing::PacketAtCollectionEndDropper\""
par QosShowcaseIPv6.ap.wlan[0].mac.hcf.edca.edcaf[0].pendingQueue comparatorClass "\"inet::ieee80211::MgmtOverDataComparator\""
par QosShowcaseIPv6.ap.wlan[0].mac.hcf.edca.edcaf[0].pendingQueue bufferModule "\"\""
scalar QosShowcaseIPv6.ap.wlan[0].mac.hcf.edca.edcaf[0].pendingQueue queueLength:last 32
attr autoWarmupFilter false
attr interpolationmode sample-hold
attr recordingmode last
attr source "warmup(atomic(constant0(packetPushEnded) + count(packetPushStarted) - count(packetPulled) - count(packetRemoved) - count(packetDropped)))"
attr title "queue length, last"
attr unit pk
scalar QosShowcaseIPv6.ap.wlan[0].mac.hcf.edca.edcaf[0].pendingQueue queueLength:max 40
attr autoWarmupFilter false
attr interpolationmode sample-hold
attr recordingmode max
attr source "warmup(atomic(constant0(packetPushEnded) + count(packetPushStarted) - count(packetPulled) - count(packetRemoved) - count(packetDropped)))"
attr title "queue length, max"
attr unit pk
scalar QosShowcaseIPv6.ap.wlan[0].mac.hcf.edca.edcaf[0].pendingQueue queueLength:timeavg 9.5932433925372
attr autoWarmupFilter false
attr interpolationmode sample-hold
attr recordingmode timeavg
attr source "warmup(atomic(constant0(packetPushEnded) + count(packetPushStarted) - count(packetPulled) - count(packetRemoved) - count(packetDropped)))"
attr title "queue length, timeavg"
attr unit pk
scalar QosShowcaseIPv6.ap.wlan[0].mac.hcf.edca.edcaf[0].pendingQueue queueBitLength:last 252416
attr autoWarmupFilter false
attr interpolationmode sample-hold
attr recordingmode last
attr source "warmup(atomic(constant0(packetPushEnded) + sum(packetLength(packetPushStarted)) - sum(packetLength(packetPulled)) - sum(packetLength(packetRemoved)) - sum(packetLength(packetDropped))))"
attr title "queue bit length, last"
attr unit b
scalar QosShowcaseIPv6.ap.wlan[0].mac.hcf.edca.edcaf[0].pendingQueue queueBitLength:max 315520
attr autoWarmupFilter false
attr interpolationmode sample-hold
attr recordingmode max
attr source "warmup(atomic(constant0(packetPushEnded) + sum(packetLength(packetPushStarted)) - sum(packetLength(packetPulled)) - sum(packetLength(packetRemoved)) - sum(packetLength(packetDropped))))"
attr title "queue bit length, max"
attr unit b
scalar QosShowcaseIPv6.ap.wlan[0].mac.hcf.edca.edcaf[0].pendingQueue queueBitLength:timeavg 75671.503880334
attr autoWarmupFilter false
attr interpolationmode sample-hold
attr recordingmode timeavg
attr source "warmup(atomic(constant0(packetPushEnded) + sum(packetLength(packetPushStarted)) - sum(packetLength(packetPulled)) - sum(packetLength(packetRemoved)) - sum(packetLength(packetDropped))))"
attr title "queue bit length, timeavg"
attr unit b
statistic QosShowcaseIPv6.ap.wlan[0].mac.hcf.edca.edcaf[0].pendingQueue queueingTime:histogram
field count 0
field mean nan
field stddev nan
field min nan
field max nan
field sum 0
field sqrsum 0
attr interpolationmode none
attr recordingmode histogram
attr source queueingTime(packetPulled)
attr title "queueing times"
attr unit s
bin	-inf	0
bin	0	0
bin	1	0
scalar QosShowcaseIPv6.ap.wlan[0].mac.hcf.edca.edcaf[0].pendingQueue outgoingPackets:count 0
attr recordingmode count
attr source packetPulled
attr title "outgoing packets, count"
attr unit pk
scalar QosShowcaseIPv6.ap.wlan[0].mac.hcf.edca.edcaf[0].pendingQueue outgoingPacketLengths:sum 0
attr interpolationmode none
attr recordingmode sum
attr source packetLength(packetPulled)
attr title "outgoing packet lengths, sum"
attr unit b
statistic QosShowcaseIPv6.ap.wlan[0].mac.hcf.edca.edcaf[0].pendingQueue outgoingPacketLengths:histogram
field count 0
field mean nan
field stddev nan
field min nan
field max nan
field sum 0
field sqrsum 0
attr interpolationmode none
attr recordingmode histogram
attr source packetLength(packetPulled)
attr title "outgoing packet lengths"
attr unit b
bin	-inf	0
bin	0	0
bin	1	0
statistic QosShowcaseIPv6.ap.wlan[0].mac.hcf.edca.edcaf[0].pendingQueue flowQueueingTime:histogram
field count 0
field mean nan
field stddev nan
field min nan
field max nan
field sum 0
field sqrsum 0
attr interpolationmode none
attr recordingmode histogram
attr source queueingTime(demuxFlow(packetPulled))
attr title "flow queueing times"
attr unit s
bin	-inf	0
bin	0	0
bin	1	0
scalar QosShowcaseIPv6.ap.wlan[0].mac.hcf.edca.edcaf[0].pendingQueue incomingPackets:count 128
attr recordingmode count
attr source packetPushStarted
attr title "incoming packets, count"
attr unit pk
scalar QosShowcaseIPv6.ap.wlan[0].mac.hcf.edca.edcaf[0].pendingQueue incomingPacketLengths:sum 1009664
attr interpolationmode none
attr recordingmode sum
attr source packetLength(packetPushStarted)
attr title "incoming packet lengths, sum"
attr unit b
statistic QosShowcaseIPv6.ap.wlan[0].mac.hcf.edca.edcaf[0].pendingQueue incomingPacketLengths:histogram
field count 128
field mean 7888
field stddev 0
field min 7888
field max 7888
field sum 1009664
field sqrsum 7964229632
attr interpolationmode none
attr recordingmode histogram
attr source packetLength(packetPushStarted)
attr title "incoming packet lengths"
attr unit b
bin	-inf	0
bin	7887	0
bin	7888	128
bin	7889	0
scalar QosShowcaseIPv6.ap.wlan[0].mac.hcf.edca.edcaf[0].pendingQueue droppedPacketsQueueOverflow:count 0
attr interpolationmode none
attr recordingmode count
attr source packetDropReasonIsQueueOverflow(packetDropped)
attr title "dropped packets: queue overflow, count"
attr unit pk
scalar QosShowcaseIPv6.ap.wlan[0].mac.hcf.edca.edcaf[0].pendingQueue droppedPacketLengthsQueueOverflow:sum 0
attr interpolationmode none
attr recordingmode sum
attr source packetLength(packetDropReasonIsQueueOverflow(packetDropped))
attr title "dropped packet lengths: queue overflow, sum"
attr unit b
par QosShowcaseIPv6.ap.wlan[0].mac.hcf.edca.edcaf[0].inProgressFrames typename "\"inet.linklayer.ieee80211.mac.queue.InProgressFrames\""
par QosShowcaseIPv6.ap.wlan[0].mac.hcf.edca.edcaf[0].inProgressFrames pendingQueueModule "\"^.pendingQueue\""
par QosShowcaseIPv6.ap.wlan[0].mac.hcf.edca.edcaf[0].inProgressFrames originatorMacDataServiceModule "\"^.^.^.originatorMacDataService\""
par QosShowcaseIPv6.ap.wlan[0].mac.hcf.edca.edcaf[0].inProgressFrames ackHandlerModule "\"^.ackHandler\""
statistic QosShowcaseIPv6.ap.wlan[0].mac.hcf.edca.edcaf[0].inProgressFrames queueingTime:histogram
field count 71
field mean 0.03663695623907
field stddev 0.041567529810846
field min 0.000294943462
field max 0.224324669923
field sum 2.601223892974
field sqrsum 0.2162510933552
attr interpolationmode none
attr recordingmode histogram
attr source queueingTime(packetDequeued)
attr title "queueing times"
bin	-inf	0
bin	0	4
bin	0.005	12
bin	0.01	6
bin	0.015	7
bin	0.02	5
bin	0.025	5
bin	0.03	7
bin	0.035	4
bin	0.04	6
bin	0.045	4
bin	0.05	2
bin	0.055	1
bin	0.06	1
bin	0.065	0
bin	0.07	0
bin	0.075	0
bin	0.08	0
bin	0.085	0
bin	0.09	1
bin	0.095	0
bin	0.1	1
bin	0.105	0
bin	0.11	0
bin	0.115	1
bin	0.12	0
bin	0.125	0
bin	0.13	0
bin	0.135	0
bin	0.14	0
bin	0.145	0
bin	0.15	1
bin	0.155	1
bin	0.16	0
bin	0.165	0
bin	0.17	1
bin	0.175	0
bin	0.18	0
bin	0.185	0
bin	0.19	0
bin	0.195	0
bin	0.2	0
bin	0.205	0
bin	0.21	0
bin	0.215	0
bin	0.22	1
bin	0.225	0
bin	0.23	0
bin	0.235	0
bin	0.24	0
bin	0.245	0
bin	0.25	0
bin	0.255	0
bin	0.26	0
bin	0.265	0
bin	0.27	0
bin	0.275	0
bin	0.28	0
bin	0.285	0
scalar QosShowcaseIPv6.ap.wlan[0].mac.hcf.edca.edcaf[0].inProgressFrames queueLength:max 4
attr autoWarmupFilter false
attr interpolationmode sample-hold
attr recordingmode max
attr source "warmup(count(packetEnqueued) - count(packetDequeued))"
attr title "queue length, max"
scalar QosShowcaseIPv6.ap.wlan[0].mac.hcf.edca.edcaf[0].inProgressFrames queueLength:timeavg 0.75892612391802
attr autoWarmupFilter false
attr interpolationmode sample-hold
attr recordingmode timeavg
attr source "warmup(count(packetEnqueued) - count(packetDequeued))"
attr title "queue length, timeavg"
par QosShowcaseIPv6.ap.wlan[0].mac.hcf.edca.edcaf[0].contention typename "\"inet.linklayer.ieee80211.mac.contention.Contention\""
par QosShowcaseIPv6.ap.wlan[0].mac.hcf.edca.edcaf[0].contention initialChannelBusy true
par QosShowcaseIPv6.ap.wlan[0].mac.hcf.edca.edcaf[0].contention backoffOptimization true
scalar QosShowcaseIPv6.ap.wlan[0].mac.hcf.edca.edcaf[0].contention channelAccessGranted:count 97
attr recordingmode count
attr title "channel access granted, count"
scalar QosShowcaseIPv6.ap.wlan[0].mac.hcf.edca.edcaf[0].contention stateChanged:count 18946
attr enum IDLE,DEFER,IFS_AND_BACKOFF
attr interpolationmode none
attr recordingmode count
attr title "contention state changed, count"
attr type enum
par QosShowcaseIPv6.ap.wlan[0].mac.hcf.edca.edcaf[0].ackHandler typename "\"inet.linklayer.ieee80211.mac.originator.QosAckHandler\""
par QosShowcaseIPv6.ap.wlan[0].mac.hcf.edca.edcaf[0].txopProcedure typename "\"inet.linklayer.ieee80211.mac.originator.TxopProcedure\""
par QosShowcaseIPv6.ap.wlan[0].mac.hcf.edca.edcaf[0].txopProcedure txopLimit -1s
attr unit s
scalar QosShowcaseIPv6.ap.wlan[0].mac.hcf.edca.edcaf[0].txopProcedure txopEnded:count 80
attr interpolationmode none
attr recordingmode count
attr source txopEnded
attr title "txops ended, count"
statistic QosShowcaseIPv6.ap.wlan[0].mac.hcf.edca.edcaf[0].txopProcedure txopDuration:histogram
field count 80
field mean 0.000273274822525
field stddev 3.5657160925682e-05
field min 0.000218943462
field max 0.000305
field sum 0.021861985802
field sqrsum 6.0747735069827e-06
attr interpolationmode none
attr recordingmode histogram
attr source txopDuration(txopEnded)
attr title "txop duration"
bin	-inf	0
bin	0.000196	0
bin	0.000198	0
bin	0.0002	0
bin	0.000202	0
bin	0.000204	0
bin	0.000206	0
bin	0.000208	0
bin	0.00021	0
bin	0.000212	0
bin	0.000214	0
bin	0.000216	0
bin	0.000218	23
bin	0.00022	0
bin	0.000222	0
bin	0.000224	0
bin	0.000226	0
bin	0.000228	1
bin	0.00023	0
bin	0.000232	0
bin	0.000234	0
bin	0.000236	0
bin	0.000238	0
bin	0.00024	0
bin	0.000242	0
bin	0.000244	0
bin	0.000246	0
bin	0.000248	0
bin	0.00025	0
bin	0.000252	0
bin	0.000254	0
bin	0.000256	0
bin	0.000258	0
bin	0.00026	0
bin	0.000262	0
bin	0.000264	0
bin	0.000266	0
bin	0.000268	0
bin	0.00027	0
bin	0.000272	0
bin	0.000274	0
bin	0.000276	0
bin	0.000278	0
bin	0.00028	0
bin	0.000282	0
bin	0.000284	0
bin	0.000286	0
bin	0.000288	0
bin	0.00029	0
bin	0.000292	0
bin	0.000294	48
bin	0.000296	0
bin	0.000298	0
bin	0.0003	0
bin	0.000302	0
bin	0.000304	8
bin	0.000306	0
bin	0.000308	0
bin	0.00031	0
bin	0.000312	0
bin	0.000314	0
bin	0.000316	0
bin	0.000318	0
bin	0.00032	0
bin	0.000322	0
bin	0.000324	0
bin	0.000326	0
bin	0.000328	0
par QosShowcaseIPv6.ap.wlan[0].mac.hcf.edca.edcaf[0].recoveryProcedure typename "\"inet.linklayer.ieee80211.mac.originator.QosRecoveryProcedure\""
par QosShowcaseIPv6.ap.wlan[0].mac.hcf.edca.edcaf[0].recoveryProcedure cwCalculatorModule "\"^\""
par QosShowcaseIPv6.ap.wlan[0].mac.hcf.edca.edcaf[0].recoveryProcedure rtsPolicyModule "\"^.^.^.rtsPolicy\""
par QosShowcaseIPv6.ap.wlan[0].mac.hcf.edca.edcaf[0].recoveryProcedure shortRetryLimit 7
par QosShowcaseIPv6.ap.wlan[0].mac.hcf.edca.edcaf[0].recoveryProcedure longRetryLimit 4
scalar QosShowcaseIPv6.ap.wlan[0].mac.hcf.edca.edcaf[0].recoveryProcedure retryLimitReached:count 0
attr recordingmode count
attr title "retry limit reached, count"
par QosShowcaseIPv6.ap.wlan[0].mac.hcf.edca.edcaf[0] typename "\"inet.linklayer.ieee80211.mac.channelaccess.Edcaf\""
par QosShowcaseIPv6.ap.wlan[0].mac.hcf.edca.edcaf[0] rxModule "\"^.^.^.rx\""
par QosShowcaseIPv6.ap.wlan[0].mac.hcf.edca.edcaf[0] collisionControllerModule "\"^.collisionController\""
par QosShowcaseIPv6.ap.wlan[0].mac.hcf.edca.edcaf[0] originatorMacDataServiceModule "\"^.^.originatorMacDataService\""
par QosShowcaseIPv6.ap.wlan[0].mac.hcf.edca.edcaf[0] accessCategory "\"AC_BK\""
attr enum AC_BK,AC_BE,AC_VI,AC_VO
par QosShowcaseIPv6.ap.wlan[0].mac.hcf.edca.edcaf[0] aifsn -1
par QosShowcaseIPv6.ap.wlan[0].mac.hcf.edca.edcaf[0] cwMin -1
par QosShowcaseIPv6.ap.wlan[0].mac.hcf.edca.edcaf[0] cwMax -1
scalar QosShowcaseIPv6.ap.wlan[0].mac.hcf.edca.edcaf[0] packetSentToPeer:count 80
attr interpolationmode none
attr recordingmode count
attr title "packets sent, count"
scalar QosShowcaseIPv6.ap.wlan[0].mac.hcf.edca.edcaf[0] packetSentToPeer:sum(packetBytes) 107424
attr interpolationmode none
attr recordingmode sum(packetBytes)
attr title "packets sent, sum(packetBytes)"
scalar QosShowcaseIPv6.ap.wlan[0].mac.hcf.edca.edcaf[0] packetSentToPeerUnicast:count 80
attr interpolationmode none
attr recordingmode count
attr source ieee80211Unicast(packetSentToPeer)
attr title "packets sent: unicast, count"
scalar QosShowcaseIPv6.ap.wlan[0].mac.hcf.edca.edcaf[0] packetSentToPeerUnicast:sum(packetBytes) 107424
attr interpolationmode none
attr recordingmode sum(packetBytes)
attr source ieee80211Unicast(packetSentToPeer)
attr title "packets sent: unicast, sum(packetBytes)"
scalar QosShowcaseIPv6.ap.wlan[0].mac.hcf.edca.edcaf[0] packetSentToPeerMulticast:count 0
attr interpolationmode none
attr recordingmode count
attr source ieee80211Multicast(packetSentToPeer)
attr title "packets sent: multicast, count"
scalar QosShowcaseIPv6.ap.wlan[0].mac.hcf.edca.edcaf[0] packetSentToPeerMulticast:sum(packetBytes) 0
attr interpolationmode none
attr recordingmode sum(packetBytes)
attr source ieee80211Multicast(packetSentToPeer)
attr title "packets sent: multicast, sum(packetBytes)"
scalar QosShowcaseIPv6.ap.wlan[0].mac.hcf.edca.edcaf[0] packetSentToPeerBroadcast:count 0
attr interpolationmode none
attr recordingmode count
attr source ieee80211Broadcast(packetSentToPeer)
attr title "packets sent: broadcast , count"
scalar QosShowcaseIPv6.ap.wlan[0].mac.hcf.edca.edcaf[0] packetSentToPeerBroadcast:sum(packetBytes) 0
attr interpolationmode none
attr recordingmode sum(packetBytes)
attr source ieee80211Broadcast(packetSentToPeer)
attr title "packets sent: broadcast , sum(packetBytes)"
scalar QosShowcaseIPv6.ap.wlan[0].mac.hcf.edca.edcaf[0] packetSentToPeerWithRetry:count 9
attr interpolationmode none
attr recordingmode count
attr source ieee80211Retry(packetSentToPeer)
attr title "packets sent: with retry, count"
scalar QosShowcaseIPv6.ap.wlan[0].mac.hcf.edca.edcaf[0] packetSentToPeerWithRetry:sum(packetBytes) 12976
attr interpolationmode none
attr recordingmode sum(packetBytes)
attr source ieee80211Retry(packetSentToPeer)
attr title "packets sent: with retry, sum(packetBytes)"
scalar QosShowcaseIPv6.ap.wlan[0].mac.hcf.edca.edcaf[0] packetSentToPeerWithoutRetry:count 71
attr interpolationmode none
attr recordingmode count
attr source ieee80211NotRetry(packetSentToPeer)
attr title "packets sent: without retry, count"
scalar QosShowcaseIPv6.ap.wlan[0].mac.hcf.edca.edcaf[0] packetSentToPeerWithoutRetry:sum(packetBytes) 94448
attr interpolationmode none
attr recordingmode sum(packetBytes)
attr source ieee80211NotRetry(packetSentToPeer)
attr title "packets sent: without retry, sum(packetBytes)"
scalar QosShowcaseIPv6.ap.wlan[0].mac.hcf.edca.edcaf[0] channelOwnershipChanged:count 160
attr interpolationmode sample-hold
attr recordingmode count
attr title "channel ownership, count"
par QosShowcaseIPv6.ap.wlan[0].mac.hcf.edca.edcaf[1].pendingQueue typename "\"inet.linklayer.ieee80211.mac.queue.PendingQueue\""
par QosShowcaseIPv6.ap.wlan[0].mac.hcf.edca.edcaf[1].pendingQueue displayStringTextFormat "\"contains %p pk (%l) pushed %u\\npulled %o removed %r dropped %d\""
par QosShowcaseIPv6.ap.wlan[0].mac.hcf.edca.edcaf[1].pendingQueue packetCapacity 100
par QosShowcaseIPv6.ap.wlan[0].mac.hcf.edca.edcaf[1].pendingQueue dataCapacity -1b
attr unit b
par QosShowcaseIPv6.ap.wlan[0].mac.hcf.edca.edcaf[1].pendingQueue dropperClass "\"inet::queueing::PacketAtCollectionEndDropper\""
par QosShowcaseIPv6.ap.wlan[0].mac.hcf.edca.edcaf[1].pendingQueue comparatorClass "\"inet::ieee80211::MgmtOverDataComparator\""
par QosShowcaseIPv6.ap.wlan[0].mac.hcf.edca.edcaf[1].pendingQueue bufferModule "\"\""
scalar QosShowcaseIPv6.ap.wlan[0].mac.hcf.edca.edcaf[1].pendingQueue queueLength:last 48
attr autoWarmupFilter false
attr interpolationmode sample-hold
attr recordingmode last
attr source "warmup(atomic(constant0(packetPushEnded) + count(packetPushStarted) - count(packetPulled) - count(packetRemoved) - count(packetDropped)))"
attr title "queue length, last"
attr unit pk
scalar QosShowcaseIPv6.ap.wlan[0].mac.hcf.edca.edcaf[1].pendingQueue queueLength:max 56
attr autoWarmupFilter false
attr interpolationmode sample-hold
attr recordingmode max
attr source "warmup(atomic(constant0(packetPushEnded) + count(packetPushStarted) - count(packetPulled) - count(packetRemoved) - count(packetDropped)))"
attr title "queue length, max"
attr unit pk
scalar QosShowcaseIPv6.ap.wlan[0].mac.hcf.edca.edcaf[1].pendingQueue queueLength:timeavg 12.293608424564
attr autoWarmupFilter false
attr interpolationmode sample-hold
attr recordingmode timeavg
attr source "warmup(atomic(constant0(packetPushEnded) + count(packetPushStarted) - count(packetPulled) - count(packetRemoved) - count(packetDropped)))"
attr title "queue length, timeavg"
attr unit pk
scalar QosShowcaseIPv6.ap.wlan[0].mac.hcf.edca.edcaf[1].pendingQueue queueBitLength:last 378624
attr autoWarmupFilter false
attr interpolationmode sample-hold
attr recordingmode last
attr source "warmup(atomic(constant0(packetPushEnded) + sum(packetLength(packetPushStarted)) - sum(packetLength(packetPulled)) - sum(packetLength(packetRemoved)) - sum(packetLength(packetDropped))))"
attr title "queue bit length, last"
attr unit b
scalar QosShowcaseIPv6.ap.wlan[0].mac.hcf.edca.edcaf[1].pendingQueue queueBitLength:max 441728
attr autoWarmupFilter false
attr interpolationmode sample-hold
attr recordingmode max
attr source "warmup(atomic(constant0(packetPushEnded) + sum(packetLength(packetPushStarted)) - sum(packetLength(packetPulled)) - sum(packetLength(packetRemoved)) - sum(packetLength(packetDropped))))"
attr title "queue bit length, max"
attr unit b
scalar QosShowcaseIPv6.ap.wlan[0].mac.hcf.edca.edcaf[1].pendingQueue queueBitLength:timeavg 96955.030796902
attr autoWarmupFilter false
attr interpolationmode sample-hold
attr recordingmode timeavg
attr source "warmup(atomic(constant0(packetPushEnded) + sum(packetLength(packetPushStarted)) - sum(packetLength(packetPulled)) - sum(packetLength(packetRemoved)) - sum(packetLength(packetDropped))))"
attr title "queue bit length, timeavg"
attr unit b
statistic QosShowcaseIPv6.ap.wlan[0].mac.hcf.edca.edcaf[1].pendingQueue queueingTime:histogram
field count 7
field mean 1.4884330801401
field stddev 0.66433715770181
field min 0.635827347629
field max 2.152436859459
field sum 10.419031560981
field sqrsum 18.156094393008
attr interpolationmode none
attr recordingmode histogram
attr source queueingTime(packetPulled)
attr title "queueing times"
attr unit s
bin	-inf	0
bin	0.25	0
bin	0.3	0
bin	0.35	0
bin	0.4	0
bin	0.45	0
bin	0.5	0
bin	0.55	0
bin	0.6	1
bin	0.65	0
bin	0.7	1
bin	0.75	0
bin	0.8	0
bin	0.85	0
bin	0.9	0
bin	0.95	0
bin	1	1
bin	1.05	0
bin	1.1	0
bin	1.15	0
bin	1.2	0
bin	1.25	0
bin	1.3	0
bin	1.35	0
bin	1.4	0
bin	1.45	0
bin	1.5	0
bin	1.55	0
bin	1.6	0
bin	1.65	0
bin	1.7	0
bin	1.75	0
bin	1.8	0
bin	1.85	1
bin	1.9	0
bin	1.95	0
bin	2	2
bin	2.05	0
bin	2.1	0
bin	2.15	1
bin	2.2	0
bin	2.25	0
bin	2.3	0
bin	2.35	0
bin	2.4	0
bin	2.45	0
bin	2.5	0
bin	2.55	0
scalar QosShowcaseIPv6.ap.wlan[0].mac.hcf.edca.edcaf[1].pendingQueue outgoingPackets:count 7
attr recordingmode count
attr source packetPulled
attr title "outgoing packets, count"
attr unit pk
scalar QosShowcaseIPv6.ap.wlan[0].mac.hcf.edca.edcaf[1].pendingQueue outgoingPacketLengths:sum 5776
attr interpolationmode none
attr recordingmode sum
attr source packetLength(packetPulled)
attr title "outgoing packet lengths, sum"
attr unit b
statistic QosShowcaseIPv6.ap.wlan[0].mac.hcf.edca.edcaf[1].pendingQueue outgoingPacketLengths:histogram
field count 7
field mean 825.14285714286
field stddev 57.583066293916
field min 752
field max 880
field sum 5776
field sqrsum 4785920
attr interpolationmode none
attr recordingmode histogram
attr source packetLength(packetPulled)
attr title "outgoing packet lengths"
attr unit b
bin	-inf	0
bin	720	0
bin	722	0
bin	724	0
bin	726	0
bin	728	0
bin	730	0
bin	732	0
bin	734	0
bin	736	0
bin	738	0
bin	740	0
bin	742	0
bin	744	0
bin	746	0
bin	748	0
bin	750	0
bin	752	2
bin	754	0
bin	756	0
bin	758	0
bin	760	0
bin	762	0
bin	764	0
bin	766	0
bin	768	0
bin	770	0
bin	772	0
bin	774	0
bin	776	0
bin	778	0
bin	780	0
bin	782	0
bin	784	0
bin	786	0
bin	788	0
bin	790	0
bin	792	0
bin	794	0
bin	796	0
bin	798	0
bin	800	0
bin	802	0
bin	804	0
bin	806	0
bin	808	0
bin	810	0
bin	812	0
bin	814	0
bin	816	2
bin	818	0
bin	820	0
bin	822	0
bin	824	0
bin	826	0
bin	828	0
bin	830	0
bin	832	0
bin	834	0
bin	836	0
bin	838	0
bin	840	0
bin	842	0
bin	844	0
bin	846	0
bin	848	0
bin	850	0
bin	852	0
bin	854	0
bin	856	0
bin	858	0
bin	860	0
bin	862	0
bin	864	0
bin	866	0
bin	868	0
bin	870	0
bin	872	0
bin	874	0
bin	876	0
bin	878	0
bin	880	3
bin	882	0
bin	884	0
bin	886	0
bin	888	0
bin	890	0
bin	892	0
bin	894	0
bin	896	0
bin	898	0
bin	900	0
bin	902	0
bin	904	0
bin	906	0
bin	908	0
bin	910	0
bin	912	0
statistic QosShowcaseIPv6.ap.wlan[0].mac.hcf.edca.edcaf[1].pendingQueue flowQueueingTime:histogram
field count 0
field mean nan
field stddev nan
field min nan
field max nan
field sum 0
field sqrsum 0
attr interpolationmode none
attr recordingmode histogram
attr source queueingTime(demuxFlow(packetPulled))
attr title "flow queueing times"
attr unit s
bin	-inf	0
bin	0	0
bin	1	0
scalar QosShowcaseIPv6.ap.wlan[0].mac.hcf.edca.edcaf[1].pendingQueue incomingPackets:count 579
attr recordingmode count
attr source packetPushStarted
attr title "incoming packets, count"
attr unit pk
scalar QosShowcaseIPv6.ap.wlan[0].mac.hcf.edca.edcaf[1].pendingQueue incomingPacketLengths:sum 4517712
attr interpolationmode none
attr recordingmode sum
attr source packetLength(packetPushStarted)
attr title "incoming packet lengths, sum"
attr unit b
statistic QosShowcaseIPv6.ap.wlan[0].mac.hcf.edca.edcaf[1].pendingQueue incomingPacketLengths:histogram
field count 579
field mean 7802.6113989637
field stddev 772.56811164859
field min 752
field max 7888
field sum 4517712
field sqrsum 35594937088
attr interpolationmode none
attr recordingmode histogram
attr source packetLength(packetPushStarted)
attr title "incoming packet lengths"
attr unit b
bin	-inf	0
bin	0	0
bin	200	0
bin	400	0
bin	600	2
bin	800	5
bin	1000	0
bin	1200	0
bin	1400	0
bin	1600	0
bin	1800	0
bin	2000	0
bin	2200	0
bin	2400	0
bin	2600	0
bin	2800	0
bin	3000	0
bin	3200	0
bin	3400	0
bin	3600	0
bin	3800	0
bin	4000	0
bin	4200	0
bin	4400	0
bin	4600	0
bin	4800	0
bin	5000	0
bin	5200	0
bin	5400	0
bin	5600	0
bin	5800	0
bin	6000	0
bin	6200	0
bin	6400	0
bin	6600	0
bin	6800	0
bin	7000	0
bin	7200	0
bin	7400	0
bin	7600	0
bin	7800	572
bin	8000	0
bin	8200	0
bin	8400	0
bin	8600	0
bin	8800	0
bin	9000	0
bin	9200	0
bin	9400	0
bin	9600	0
bin	9800	0
scalar QosShowcaseIPv6.ap.wlan[0].mac.hcf.edca.edcaf[1].pendingQueue droppedPacketsQueueOverflow:count 0
attr interpolationmode none
attr recordingmode count
attr source packetDropReasonIsQueueOverflow(packetDropped)
attr title "dropped packets: queue overflow, count"
attr unit pk
scalar QosShowcaseIPv6.ap.wlan[0].mac.hcf.edca.edcaf[1].pendingQueue droppedPacketLengthsQueueOverflow:sum 0
attr interpolationmode none
attr recordingmode sum
attr source packetLength(packetDropReasonIsQueueOverflow(packetDropped))
attr title "dropped packet lengths: queue overflow, sum"
attr unit b
par QosShowcaseIPv6.ap.wlan[0].mac.hcf.edca.edcaf[1].inProgressFrames typename "\"inet.linklayer.ieee80211.mac.queue.InProgressFrames\""
par QosShowcaseIPv6.ap.wlan[0].mac.hcf.edca.edcaf[1].inProgressFrames pendingQueueModule "\"^.pendingQueue\""
par QosShowcaseIPv6.ap.wlan[0].mac.hcf.edca.edcaf[1].inProgressFrames originatorMacDataServiceModule "\"^.^.^.originatorMacDataService\""
par QosShowcaseIPv6.ap.wlan[0].mac.hcf.edca.edcaf[1].inProgressFrames ackHandlerModule "\"^.ackHandler\""
statistic QosShowcaseIPv6.ap.wlan[0].mac.hcf.edca.edcaf[1].inProgressFrames queueingTime:histogram
field count 397
field mean 0.0075430239437154
field stddev 0.0064054493903175
field min 4.2e-05
field max 0.052155292873
field sum 2.994580505655
field sqrsum 0.038835986084739
attr interpolationmode none
attr recordingmode histogram
attr source queueingTime(packetDequeued)
attr title "queueing times"
bin	-inf	0
bin	0	21
bin	0.001	24
bin	0.002	36
bin	0.003	31
bin	0.004	43
bin	0.005	42
bin	0.006	36
bin	0.007	23
bin	0.008	26
bin	0.009	26
bin	0.01	15
bin	0.011	8
bin	0.012	12
bin	0.013	12
bin	0.014	7
bin	0.015	5
bin	0.016	3
bin	0.017	7
bin	0.018	3
bin	0.019	0
bin	0.02	3
bin	0.021	2
bin	0.022	1
bin	0.023	2
bin	0.024	1
bin	0.025	1
bin	0.026	2
bin	0.027	0
bin	0.028	1
bin	0.029	0
bin	0.03	0
bin	0.031	0
bin	0.032	0
bin	0.033	1
bin	0.034	0
bin	0.035	0
bin	0.036	0
bin	0.037	0
bin	0.038	0
bin	0.039	0
bin	0.04	0
bin	0.041	0
bin	0.042	0
bin	0.043	0
bin	0.044	0
bin	0.045	0
bin	0.046	1
bin	0.047	0
bin	0.048	0
bin	0.049	1
bin	0.05	0
bin	0.051	0
bin	0.052	1
bin	0.053	0
scalar QosShowcaseIPv6.ap.wlan[0].mac.hcf.edca.edcaf[1].inProgressFrames queueLength:max 4
attr autoWarmupFilter false
attr interpolationmode sample-hold
attr recordingmode max
attr source "warmup(count(packetEnqueued) - count(packetDequeued))"
attr title "queue length, max"
scalar QosShowcaseIPv6.ap.wlan[0].mac.hcf.edca.edcaf[1].inProgressFrames queueLength:timeavg 0.88623034654211
attr autoWarmupFilter false
attr interpolationmode sample-hold
attr recordingmode timeavg
attr source "warmup(count(packetEnqueued) - count(packetDequeued))"
attr title "queue length, timeavg"
par QosShowcaseIPv6.ap.wlan[0].mac.hcf.edca.edcaf[1].contention typename "\"inet.linklayer.ieee80211.mac.contention.Contention\""
par QosShowcaseIPv6.ap.wlan[0].mac.hcf.edca.edcaf[1].contention initialChannelBusy true
par QosShowcaseIPv6.ap.wlan[0].mac.hcf.edca.edcaf[1].contention backoffOptimization true
scalar QosShowcaseIPv6.ap.wlan[0].mac.hcf.edca.edcaf[1].contention channelAccessGranted:count 457
attr recordingmode count
attr title "channel access granted, count"
scalar QosShowcaseIPv6.ap.wlan[0].mac.hcf.edca.edcaf[1].contention stateChanged:count 20386
attr enum IDLE,DEFER,IFS_AND_BACKOFF
attr interpolationmode none
attr recordingmode count
attr title "contention state changed, count"
attr type enum
par QosShowcaseIPv6.ap.wlan[0].mac.hcf.edca.edcaf[1].ackHandler typename "\"inet.linklayer.ieee80211.mac.originator.QosAckHandler\""
par QosShowcaseIPv6.ap.wlan[0].mac.hcf.edca.edcaf[1].txopProcedure typename "\"inet.linklayer.ieee80211.mac.originator.TxopProcedure\""
par QosShowcaseIPv6.ap.wlan[0].mac.hcf.edca.edcaf[1].txopProcedure txopLimit -1s
attr unit s
scalar QosShowcaseIPv6.ap.wlan[0].mac.hcf.edca.edcaf[1].txopProcedure txopEnded:count 424
attr interpolationmode none
attr recordingmode count
attr source txopEnded
attr title "txops ended, count"
statistic QosShowcaseIPv6.ap.wlan[0].mac.hcf.edca.edcaf[1].txopProcedure txopDuration:histogram
field count 424
field mean 0.00026682757934434
field stddev 4.6081735451783e-05
field min 4.2e-05
field max 0.000358943462
field sum 0.113134893642
field sqrsum 3.1085761452645e-05
attr interpolationmode none
attr recordingmode histogram
attr source txopDuration(txopEnded)
attr title "txop duration"
bin	-inf	0
bin	0	0
bin	5e-06	0
bin	1e-05	0
bin	1.5e-05	0
bin	2e-05	0
bin	2.5e-05	0
bin	3e-05	0
bin	3.5e-05	0
bin	4e-05	4
bin	4.5e-05	3
bin	5e-05	0
bin	5.5e-05	0
bin	6e-05	0
bin	6.5e-05	0
bin	7e-05	0
bin	7.5e-05	0
bin	8e-05	0
bin	8.5e-05	0
bin	9e-05	0
bin	9.5e-05	0
bin	0.0001	0
bin	0.000105	0
bin	0.00011	0
bin	0.000115	0
bin	0.00012	0
bin	0.000125	0
bin	0.00013	0
bin	0.000135	0
bin	0.00014	0
bin	0.000145	0
bin	0.00015	0
bin	0.000155	0
bin	0.00016	0
bin	0.000165	0
bin	0.00017	0
bin	0.000175	0
bin	0.00018	0
bin	0.000185	0
bin	0.00019	0
bin	0.000195	0
bin	0.0002	0
bin	0.000205	0
bin	0.00021	0
bin	0.000215	130
bin	0.00022	0
bin	0.000225	8
bin	0.00023	0
bin	0.000235	0
bin	0.00024	0
bin	0.000245	0
bin	0.00025	0
bin	0.000255	0
bin	0.00026	0
bin	0.000265	0
bin	0.00027	0
bin	0.000275	0
bin	0.00028	0
bin	0.000285	0
bin	0.00029	260
bin	0.000295	0
bin	0.0003	18
bin	0.000305	0
bin	0.00031	0
bin	0.000315	0
bin	0.00032	0
bin	0.000325	0
bin	0.00033	0
bin	0.000335	0
bin	0.00034	0
bin	0.000345	0
bin	0.00035	0
bin	0.000355	1
bin	0.00036	0
bin	0.000365	0
bin	0.00037	0
bin	0.000375	0
bin	0.00038	0
bin	0.000385	0
bin	0.00039	0
bin	0.000395	0
bin	0.0004	0
bin	0.000405	0
bin	0.00041	0
bin	0.000415	0
bin	0.00042	0
bin	0.000425	0
bin	0.00043	0
bin	0.000435	0
bin	0.00044	0
par QosShowcaseIPv6.ap.wlan[0].mac.hcf.edca.edcaf[1].recoveryProcedure typename "\"inet.linklayer.ieee80211.mac.originator.QosRecoveryProcedure\""
par QosShowcaseIPv6.ap.wlan[0].mac.hcf.edca.edcaf[1].recoveryProcedure cwCalculatorModule "\"^\""
par QosShowcaseIPv6.ap.wlan[0].mac.hcf.edca.edcaf[1].recoveryProcedure rtsPolicyModule "\"^.^.^.rtsPolicy\""
par QosShowcaseIPv6.ap.wlan[0].mac.hcf.edca.edcaf[1].recoveryProcedure shortRetryLimit 7
par QosShowcaseIPv6.ap.wlan[0].mac.hcf.edca.edcaf[1].recoveryProcedure longRetryLimit 4
scalar QosShowcaseIPv6.ap.wlan[0].mac.hcf.edca.edcaf[1].recoveryProcedure retryLimitReached:count 0
attr recordingmode count
attr title "retry limit reached, count"
par QosShowcaseIPv6.ap.wlan[0].mac.hcf.edca.edcaf[1] typename "\"inet.linklayer.ieee80211.mac.channelaccess.Edcaf\""
par QosShowcaseIPv6.ap.wlan[0].mac.hcf.edca.edcaf[1] rxModule "\"^.^.^.rx\""
par QosShowcaseIPv6.ap.wlan[0].mac.hcf.edca.edcaf[1] collisionControllerModule "\"^.collisionController\""
par QosShowcaseIPv6.ap.wlan[0].mac.hcf.edca.edcaf[1] originatorMacDataServiceModule "\"^.^.originatorMacDataService\""
par QosShowcaseIPv6.ap.wlan[0].mac.hcf.edca.edcaf[1] accessCategory "\"AC_BE\""
attr enum AC_BK,AC_BE,AC_VI,AC_VO
par QosShowcaseIPv6.ap.wlan[0].mac.hcf.edca.edcaf[1] aifsn -1
par QosShowcaseIPv6.ap.wlan[0].mac.hcf.edca.edcaf[1] cwMin -1
par QosShowcaseIPv6.ap.wlan[0].mac.hcf.edca.edcaf[1] cwMax -1
scalar QosShowcaseIPv6.ap.wlan[0].mac.hcf.edca.edcaf[1] packetSentToPeer:count 424
attr interpolationmode none
attr recordingmode count
attr title "packets sent, count"
scalar QosShowcaseIPv6.ap.wlan[0].mac.hcf.edca.edcaf[1] packetSentToPeer:sum(packetBytes) 553910
attr interpolationmode none
attr recordingmode sum(packetBytes)
attr title "packets sent, sum(packetBytes)"
scalar QosShowcaseIPv6.ap.wlan[0].mac.hcf.edca.edcaf[1] packetSentToPeerUnicast:count 417
attr interpolationmode none
attr recordingmode count
attr source ieee80211Unicast(packetSentToPeer)
attr title "packets sent: unicast, count"
scalar QosShowcaseIPv6.ap.wlan[0].mac.hcf.edca.edcaf[1] packetSentToPeerUnicast:sum(packetBytes) 553188
attr interpolationmode none
attr recordingmode sum(packetBytes)
attr source ieee80211Unicast(packetSentToPeer)
attr title "packets sent: unicast, sum(packetBytes)"
scalar QosShowcaseIPv6.ap.wlan[0].mac.hcf.edca.edcaf[1] packetSentToPeerMulticast:count 7
attr interpolationmode none
attr recordingmode count
attr source ieee80211Multicast(packetSentToPeer)
attr title "packets sent: multicast, count"
scalar QosShowcaseIPv6.ap.wlan[0].mac.hcf.edca.edcaf[1] packetSentToPeerMulticast:sum(packetBytes) 722
attr interpolationmode none
attr recordingmode sum(packetBytes)
attr source ieee80211Multicast(packetSentToPeer)
attr title "packets sent: multicast, sum(packetBytes)"
scalar QosShowcaseIPv6.ap.wlan[0].mac.hcf.edca.edcaf[1] packetSentToPeerBroadcast:count 7
attr interpolationmode none
attr recordingmode count
attr source ieee80211Broadcast(packetSentToPeer)
attr title "packets sent: broadcast , count"
scalar QosShowcaseIPv6.ap.wlan[0].mac.hcf.edca.edcaf[1] packetSentToPeerBroadcast:sum(packetBytes) 722
attr interpolationmode none
attr recordingmode sum(packetBytes)
attr source ieee80211Broadcast(packetSentToPeer)
attr title "packets sent: broadcast , sum(packetBytes)"
scalar QosShowcaseIPv6.ap.wlan[0].mac.hcf.edca.edcaf[1] packetSentToPeerWithRetry:count 26
attr interpolationmode none
attr recordingmode count
attr source ieee80211Retry(packetSentToPeer)
attr title "packets sent: with retry, count"
scalar QosShowcaseIPv6.ap.wlan[0].mac.hcf.edca.edcaf[1] packetSentToPeerWithRetry:sum(packetBytes) 34808
attr interpolationmode none
attr recordingmode sum(packetBytes)
attr source ieee80211Retry(packetSentToPeer)
attr title "packets sent: with retry, sum(packetBytes)"
scalar QosShowcaseIPv6.ap.wlan[0].mac.hcf.edca.edcaf[1] packetSentToPeerWithoutRetry:count 398
attr interpolationmode none
attr recordingmode count
attr source ieee80211NotRetry(packetSentToPeer)
attr title "packets sent: without retry, count"
scalar QosShowcaseIPv6.ap.wlan[0].mac.hcf.edca.edcaf[1] packetSentToPeerWithoutRetry:sum(packetBytes) 519102
attr interpolationmode none
attr recordingmode sum(packetBytes)
attr source ieee80211NotRetry(packetSentToPeer)
attr title "packets sent: without retry, sum(packetBytes)"
scalar QosShowcaseIPv6.ap.wlan[0].mac.hcf.edca.edcaf[1] channelOwnershipChanged:count 848
attr interpolationmode sample-hold
attr recordingmode count
attr title "channel ownership, count"
par QosShowcaseIPv6.ap.wlan[0].mac.hcf.edca.edcaf[2].pendingQueue typename "\"inet.linklayer.ieee80211.mac.queue.PendingQueue\""
par QosShowcaseIPv6.ap.wlan[0].mac.hcf.edca.edcaf[2].pendingQueue displayStringTextFormat "\"contains %p pk (%l) pushed %u\\npulled %o removed %r dropped %d\""
par QosShowcaseIPv6.ap.wlan[0].mac.hcf.edca.edcaf[2].pendingQueue packetCapacity 100
par QosShowcaseIPv6.ap.wlan[0].mac.hcf.edca.edcaf[2].pendingQueue dataCapacity -1b
attr unit b
par QosShowcaseIPv6.ap.wlan[0].mac.hcf.edca.edcaf[2].pendingQueue dropperClass "\"inet::queueing::PacketAtCollectionEndDropper\""
par QosShowcaseIPv6.ap.wlan[0].mac.hcf.edca.edcaf[2].pendingQueue comparatorClass "\"inet::ieee80211::MgmtOverDataComparator\""
par QosShowcaseIPv6.ap.wlan[0].mac.hcf.edca.edcaf[2].pendingQueue bufferModule "\"\""
scalar QosShowcaseIPv6.ap.wlan[0].mac.hcf.edca.edcaf[2].pendingQueue queueLength:last 0
attr autoWarmupFilter false
attr interpolationmode sample-hold
attr recordingmode last
attr source "warmup(atomic(constant0(packetPushEnded) + count(packetPushStarted) - count(packetPulled) - count(packetRemoved) - count(packetDropped)))"
attr title "queue length, last"
attr unit pk
scalar QosShowcaseIPv6.ap.wlan[0].mac.hcf.edca.edcaf[2].pendingQueue queueLength:max 78
attr autoWarmupFilter false
attr interpolationmode sample-hold
attr recordingmode max
attr source "warmup(atomic(constant0(packetPushEnded) + count(packetPushStarted) - count(packetPulled) - count(packetRemoved) - count(packetDropped)))"
attr title "queue length, max"
attr unit pk
scalar QosShowcaseIPv6.ap.wlan[0].mac.hcf.edca.edcaf[2].pendingQueue queueLength:timeavg 0.68918053564409
attr autoWarmupFilter false
attr interpolationmode sample-hold
attr recordingmode timeavg
attr source "warmup(atomic(constant0(packetPushEnded) + count(packetPushStarted) - count(packetPulled) - count(packetRemoved) - count(packetDropped)))"
attr title "queue length, timeavg"
attr unit pk
scalar QosShowcaseIPv6.ap.wlan[0].mac.hcf.edca.edcaf[2].pendingQueue queueBitLength:last 0
attr autoWarmupFilter false
attr interpolationmode sample-hold
attr recordingmode last
attr source "warmup(atomic(constant0(packetPushEnded) + sum(packetLength(packetPushStarted)) - sum(packetLength(packetPulled)) - sum(packetLength(packetRemoved)) - sum(packetLength(packetDropped))))"
attr title "queue bit length, last"
attr unit b
scalar QosShowcaseIPv6.ap.wlan[0].mac.hcf.edca.edcaf[2].pendingQueue queueBitLength:max 428064
attr autoWarmupFilter false
attr interpolationmode sample-hold
attr recordingmode max
attr source "warmup(atomic(constant0(packetPushEnded) + sum(packetLength(packetPushStarted)) - sum(packetLength(packetPulled)) - sum(packetLength(packetRemoved)) - sum(packetLength(packetDropped))))"
attr title "queue bit length, max"
attr unit b
scalar QosShowcaseIPv6.ap.wlan[0].mac.hcf.edca.edcaf[2].pendingQueue queueBitLength:timeavg 3782.2227796148
attr autoWarmupFilter false
attr interpolationmode sample-hold
attr recordingmode timeavg
attr source "warmup(atomic(constant0(packetPushEnded) + sum(packetLength(packetPushStarted)) - sum(packetLength(packetPulled)) - sum(packetLength(packetRemoved)) - sum(packetLength(packetDropped))))"
attr title "queue bit length, timeavg"
attr unit b
statistic QosShowcaseIPv6.ap.wlan[0].mac.hcf.edca.edcaf[2].pendingQueue queueingTime:histogram
field count 252
field mean 2.7289326539434
field stddev 0.41937109351603
field min 2.062673540007
field max 3.437696122403
field sum 687.69102879374
field sqrsum 1920.8064049325
attr interpolationmode none
attr recordingmode histogram
attr source queueingTime(packetPulled)
attr title "queueing times"
attr unit s
bin	-inf	0
bin	1.7	0
bin	1.72	0
bin	1.74	0
bin	1.76	0
bin	1.78	0
bin	1.8	0
bin	1.82	0
bin	1.84	0
bin	1.86	0
bin	1.88	0
bin	1.9	0
bin	1.92	0
bin	1.94	0
bin	1.96	0
bin	1.98	0
bin	2	0
bin	2.02	0
bin	2.04	0
bin	2.06	8
bin	2.08	4
bin	2.1	7
bin	2.12	2
bin	2.14	4
bin	2.16	4
bin	2.18	4
bin	2.2	9
bin	2.22	10
bin	2.24	2
bin	2.26	2
bin	2.28	4
bin	2.3	1
bin	2.32	5
bin	2.34	1
bin	2.36	4
bin	2.38	2
bin	2.4	2
bin	2.42	3
bin	2.44	2
bin	2.46	0
bin	2.48	2
bin	2.5	3
bin	2.52	4
bin	2.54	3
bin	2.56	2
bin	2.58	7
bin	2.6	3
bin	2.62	4
bin	2.64	6
bin	2.66	3
bin	2.68	3
bin	2.7	2
bin	2.72	4
bin	2.74	4
bin	2.76	3
bin	2.78	6
bin	2.8	1
bin	2.82	3
bin	2.84	6
bin	2.86	6
bin	2.88	1
bin	2.9	1
bin	2.92	4
bin	2.94	3
bin	2.96	5
bin	2.98	6
bin	3	6
bin	3.02	1
bin	3.04	2
bin	3.06	2
bin	3.08	3
bin	3.1	3
bin	3.12	5
bin	3.14	3
bin	3.16	6
bin	3.18	2
bin	3.2	4
bin	3.22	3
bin	3.24	3
bin	3.26	2
bin	3.28	2
bin	3.3	6
bin	3.32	4
bin	3.34	5
bin	3.36	3
bin	3.38	4
bin	3.4	5
bin	3.42	3
bin	3.44	0
bin	3.46	0
bin	3.48	0
bin	3.5	0
bin	3.52	0
bin	3.54	0
bin	3.56	0
bin	3.58	0
bin	3.6	0
bin	3.62	0
bin	3.64	0
bin	3.66	0
bin	3.68	0
bin	3.7	0
bin	3.72	0
bin	3.74	0
bin	3.76	0
bin	3.78	0
bin	3.8	0
scalar QosShowcaseIPv6.ap.wlan[0].mac.hcf.edca.edcaf[2].pendingQueue outgoingPackets:count 252
attr recordingmode count
attr source packetPulled
attr title "outgoing packets, count"
attr unit pk
scalar QosShowcaseIPv6.ap.wlan[0].mac.hcf.edca.edcaf[2].pendingQueue outgoingPacketLengths:sum 1382976
attr interpolationmode none
attr recordingmode sum
attr source packetLength(packetPulled)
attr title "outgoing packet lengths, sum"
attr unit b
statistic QosShowcaseIPv6.ap.wlan[0].mac.hcf.edca.edcaf[2].pendingQueue outgoingPacketLengths:histogram
field count 252
field mean 5488
field stddev 0
field min 5488
field max 5488
field sum 1382976
field sqrsum 7589772288
attr interpolationmode none
attr recordingmode histogram
attr source packetLength(packetPulled)
attr title "outgoing packet lengths"
attr unit b
bin	-inf	0
bin	5487	0
bin	5488	252
bin	5489	0
statistic QosShowcaseIPv6.ap.wlan[0].mac.hcf.edca.edcaf[2].pendingQueue flowQueueingTime:histogram
field count 0
field mean nan
field stddev nan
field min nan
field max nan
field sum 0
field sqrsum 0
attr interpolationmode none
attr recordingmode histogram
attr source queueingTime(demuxFlow(packetPulled))
attr title "flow queueing times"
attr unit s
bin	-inf	0
bin	0	0
bin	1	0
scalar QosShowcaseIPv6.ap.wlan[0].mac.hcf.edca.edcaf[2].pendingQueue incomingPackets:count 1532
attr recordingmode count
attr source packetPushStarted
attr title "incoming packets, count"
attr unit pk
scalar QosShowcaseIPv6.ap.wlan[0].mac.hcf.edca.edcaf[2].pendingQueue incomingPacketLengths:sum 8407616
attr interpolationmode none
attr recordingmode sum
attr source packetLength(packetPushStarted)
attr title "incoming packet lengths, sum"
attr unit b
statistic QosShowcaseIPv6.ap.wlan[0].mac.hcf.edca.edcaf[2].pendingQueue incomingPacketLengths:histogram
field count 1532
field mean 5488
field stddev 0
field min 5488
field max 5488
field sum 8407616
field sqrsum 46140996608
attr interpolationmode none
attr recordingmode histogram
attr source packetLength(packetPushStarted)
attr title "incoming packet lengths"
attr unit b
bin	-inf	0
bin	5487	0
bin	5488	1532
bin	5489	0
scalar QosShowcaseIPv6.ap.wlan[0].mac.hcf.edca.edcaf[2].pendingQueue droppedPacketsQueueOverflow:count 0
attr interpolationmode none
attr recordingmode count
attr source packetDropReasonIsQueueOverflow(packetDropped)
attr title "dropped packets: queue overflow, count"
attr unit pk
scalar QosShowcaseIPv6.ap.wlan[0].mac.hcf.edca.edcaf[2].pendingQueue droppedPacketLengthsQueueOverflow:sum 0
attr interpolationmode none
attr recordingmode sum
attr source packetLength(packetDropReasonIsQueueOverflow(packetDropped))
attr title "dropped packet lengths: queue overflow, sum"
attr unit b
par QosShowcaseIPv6.ap.wlan[0].mac.hcf.edca.edcaf[2].inProgressFrames typename "\"inet.linklayer.ieee80211.mac.queue.InProgressFrames\""
par QosShowcaseIPv6.ap.wlan[0].mac.hcf.edca.edcaf[2].inProgressFrames pendingQueueModule "\"^.pendingQueue\""
par QosShowcaseIPv6.ap.wlan[0].mac.hcf.edca.edcaf[2].inProgressFrames originatorMacDataServiceModule "\"^.^.^.originatorMacDataService\""
par QosShowcaseIPv6.ap.wlan[0].mac.hcf.edca.edcaf[2].inProgressFrames ackHandlerModule "\"^.ackHandler\""
statistic QosShowcaseIPv6.ap.wlan[0].mac.hcf.edca.edcaf[2].inProgressFrames queueingTime:histogram
field count 960
field mean 0.00042516741318854
field stddev 0.00062671298202704
field min 0.000174943462
field max 0.008786920806
field sum 0.408160716661
field sqrsum 0.00055020226227367
attr interpolationmode none
attr recordingmode histogram
attr source queueingTime(packetDequeued)
attr title "queueing times"
bin	-inf	0
bin	0	244
bin	0.0002	426
bin	0.0004	199
bin	0.0006	16
bin	0.0008	30
bin	0.001	21
bin	0.0012	2
bin	0.0014	2
bin	0.0016	0
bin	0.0018	1
bin	0.002	2
bin	0.0022	0
bin	0.0024	2
bin	0.0026	3
bin	0.0028	2
bin	0.003	1
bin	0.0032	1
bin	0.0034	1
bin	0.0036	1
bin	0.0038	1
bin	0.004	0
bin	0.0042	0
bin	0.0044	0
bin	0.0046	0
bin	0.0048	1
bin	0.005	1
bin	0.0052	0
bin	0.0054	0
bin	0.0056	0
bin	0.0058	0
bin	0.006	0
bin	0.0062	0
bin	0.0064	0
bin	0.0066	0
bin	0.0068	0
bin	0.007	0
bin	0.0072	0
bin	0.0074	0
bin	0.0076	0
bin	0.0078	0
bin	0.008	0
bin	0.0082	1
bin	0.0084	1
bin	0.0086	1
bin	0.0088	0
bin	0.009	0
bin	0.0092	0
bin	0.0094	0
bin	0.0096	0
bin	0.0098	0
bin	0.01	0
bin	0.0102	0
bin	0.0104	0
bin	0.0106	0
bin	0.0108	0
bin	0.011	0
scalar QosShowcaseIPv6.ap.wlan[0].mac.hcf.edca.edcaf[2].inProgressFrames queueLength:max 4
attr autoWarmupFilter false
attr interpolationmode sample-hold
attr recordingmode max
attr source "warmup(count(packetEnqueued) - count(packetDequeued))"
attr title "queue length, max"
scalar QosShowcaseIPv6.ap.wlan[0].mac.hcf.edca.edcaf[2].inProgressFrames queueLength:timeavg 0.11850970536176
attr autoWarmupFilter false
attr interpolationmode sample-hold
attr recordingmode timeavg
attr source "warmup(count(packetEnqueued) - count(packetDequeued))"
attr title "queue length, timeavg"
par QosShowcaseIPv6.ap.wlan[0].mac.hcf.edca.edcaf[2].contention typename "\"inet.linklayer.ieee80211.mac.contention.Contention\""
par QosShowcaseIPv6.ap.wlan[0].mac.hcf.edca.edcaf[2].contention initialChannelBusy true
par QosShowcaseIPv6.ap.wlan[0].mac.hcf.edca.edcaf[2].contention backoffOptimization true
scalar QosShowcaseIPv6.ap.wlan[0].mac.hcf.edca.edcaf[2].contention channelAccessGranted:count 704
attr recordingmode count
attr title "channel access granted, count"
scalar QosShowcaseIPv6.ap.wlan[0].mac.hcf.edca.edcaf[2].contention stateChanged:count 21372
attr enum IDLE,DEFER,IFS_AND_BACKOFF
attr interpolationmode none
attr recordingmode count
attr title "contention state changed, count"
attr type enum
par QosShowcaseIPv6.ap.wlan[0].mac.hcf.edca.edcaf[2].ackHandler typename "\"inet.linklayer.ieee80211.mac.originator.QosAckHandler\""
par QosShowcaseIPv6.ap.wlan[0].mac.hcf.edca.edcaf[2].txopProcedure typename "\"inet.linklayer.ieee80211.mac.originator.TxopProcedure\""
par QosShowcaseIPv6.ap.wlan[0].mac.hcf.edca.edcaf[2].txopProcedure txopLimit -1s
attr unit s
scalar QosShowcaseIPv6.ap.wlan[0].mac.hcf.edca.edcaf[2].txopProcedure txopEnded:count 694
attr interpolationmode none
attr recordingmode count
attr source txopEnded
attr title "txops ended, count"
statistic QosShowcaseIPv6.ap.wlan[0].mac.hcf.edca.edcaf[2].txopProcedure txopDuration:histogram
field count 694
field mean 0.00033202697913545
field stddev 0.00041784850014935
field min 0.000174943462
field max 0.006306756164
field sum 0.23042672352
field sqrsum 0.00019750386569283
attr interpolationmode none
attr recordingmode histogram
attr source txopDuration(txopEnded)
attr title "txop duration"
bin	-inf	0
bin	0	0
bin	0.0001	250
bin	0.0002	261
bin	0.0003	4
bin	0.0004	117
bin	0.0005	35
bin	0.0006	1
bin	0.0007	14
bin	0.0008	4
bin	0.0009	0
bin	0.001	2
bin	0.0011	0
bin	0.0012	2
bin	0.0013	0
bin	0.0014	0
bin	0.0015	0
bin	0.0016	0
bin	0.0017	0
bin	0.0018	0
bin	0.0019	0
bin	0.002	0
bin	0.0021	0
bin	0.0022	1
bin	0.0023	0
bin	0.0024	0
bin	0.0025	0
bin	0.0026	0
bin	0.0027	0
bin	0.0028	0
bin	0.0029	0
bin	0.003	0
bin	0.0031	0
bin	0.0032	0
bin	0.0033	0
bin	0.0034	0
bin	0.0035	0
bin	0.0036	0
bin	0.0037	0
bin	0.0038	0
bin	0.0039	0
bin	0.004	0
bin	0.0041	0
bin	0.0042	0
bin	0.0043	0
bin	0.0044	0
bin	0.0045	0
bin	0.0046	0
bin	0.0047	0
bin	0.0048	0
bin	0.0049	0
bin	0.005	0
bin	0.0051	0
bin	0.0052	0
bin	0.0053	0
bin	0.0054	0
bin	0.0055	0
bin	0.0056	1
bin	0.0057	0
bin	0.0058	0
bin	0.0059	0
bin	0.006	0
bin	0.0061	0
bin	0.0062	0
bin	0.0063	2
bin	0.0064	0
bin	0.0065	0
bin	0.0066	0
bin	0.0067	0
bin	0.0068	0
bin	0.0069	0
bin	0.007	0
bin	0.0071	0
bin	0.0072	0
bin	0.0073	0
bin	0.0074	0
bin	0.0075	0
bin	0.0076	0
bin	0.0077	0
bin	0.0078	0
bin	0.0079	0
par QosShowcaseIPv6.ap.wlan[0].mac.hcf.edca.edcaf[2].recoveryProcedure typename "\"inet.linklayer.ieee80211.mac.originator.QosRecoveryProcedure\""
par QosShowcaseIPv6.ap.wlan[0].mac.hcf.edca.edcaf[2].recoveryProcedure cwCalculatorModule "\"^\""
par QosShowcaseIPv6.ap.wlan[0].mac.hcf.edca.edcaf[2].recoveryProcedure rtsPolicyModule "\"^.^.^.rtsPolicy\""
par QosShowcaseIPv6.ap.wlan[0].mac.hcf.edca.edcaf[2].recoveryProcedure shortRetryLimit 7
par QosShowcaseIPv6.ap.wlan[0].mac.hcf.edca.edcaf[2].recoveryProcedure longRetryLimit 4
scalar QosShowcaseIPv6.ap.wlan[0].mac.hcf.edca.edcaf[2].recoveryProcedure retryLimitReached:count 0
attr recordingmode count
attr title "retry limit reached, count"
par QosShowcaseIPv6.ap.wlan[0].mac.hcf.edca.edcaf[2] typename "\"inet.linklayer.ieee80211.mac.channelaccess.Edcaf\""
par QosShowcaseIPv6.ap.wlan[0].mac.hcf.edca.edcaf[2] rxModule "\"^.^.^.rx\""
par QosShowcaseIPv6.ap.wlan[0].mac.hcf.edca.edcaf[2] collisionControllerModule "\"^.collisionController\""
par QosShowcaseIPv6.ap.wlan[0].mac.hcf.edca.edcaf[2] originatorMacDataServiceModule "\"^.^.originatorMacDataService\""
par QosShowcaseIPv6.ap.wlan[0].mac.hcf.edca.edcaf[2] accessCategory "\"AC_VI\""
attr enum AC_BK,AC_BE,AC_VI,AC_VO
par QosShowcaseIPv6.ap.wlan[0].mac.hcf.edca.edcaf[2] aifsn -1
par QosShowcaseIPv6.ap.wlan[0].mac.hcf.edca.edcaf[2] cwMin -1
par QosShowcaseIPv6.ap.wlan[0].mac.hcf.edca.edcaf[2] cwMax -1
scalar QosShowcaseIPv6.ap.wlan[0].mac.hcf.edca.edcaf[2] packetSentToPeer:count 967
attr interpolationmode none
attr recordingmode count
attr title "packets sent, count"
scalar QosShowcaseIPv6.ap.wlan[0].mac.hcf.edca.edcaf[2] packetSentToPeer:sum(packetBytes) 1061270
attr interpolationmode none
attr recordingmode sum(packetBytes)
attr title "packets sent, sum(packetBytes)"
scalar QosShowcaseIPv6.ap.wlan[0].mac.hcf.edca.edcaf[2] packetSentToPeerUnicast:count 967
attr interpolationmode none
attr recordingmode count
attr source ieee80211Unicast(packetSentToPeer)
attr title "packets sent: unicast, count"
scalar QosShowcaseIPv6.ap.wlan[0].mac.hcf.edca.edcaf[2] packetSentToPeerUnicast:sum(packetBytes) 1061270
attr interpolationmode none
attr recordingmode sum(packetBytes)
attr source ieee80211Unicast(packetSentToPeer)
attr title "packets sent: unicast, sum(packetBytes)"
scalar QosShowcaseIPv6.ap.wlan[0].mac.hcf.edca.edcaf[2] packetSentToPeerMulticast:count 0
attr interpolationmode none
attr recordingmode count
attr source ieee80211Multicast(packetSentToPeer)
attr title "packets sent: multicast, count"
scalar QosShowcaseIPv6.ap.wlan[0].mac.hcf.edca.edcaf[2] packetSentToPeerMulticast:sum(packetBytes) 0
attr interpolationmode none
attr recordingmode sum(packetBytes)
attr source ieee80211Multicast(packetSentToPeer)
attr title "packets sent: multicast, sum(packetBytes)"
scalar QosShowcaseIPv6.ap.wlan[0].mac.hcf.edca.edcaf[2] packetSentToPeerBroadcast:count 0
attr interpolationmode none
attr recordingmode count
attr source ieee80211Broadcast(packetSentToPeer)
attr title "packets sent: broadcast , count"
scalar QosShowcaseIPv6.ap.wlan[0].mac.hcf.edca.edcaf[2] packetSentToPeerBroadcast:sum(packetBytes) 0
attr interpolationmode none
attr recordingmode sum(packetBytes)
attr source ieee80211Broadcast(packetSentToPeer)
attr title "packets sent: broadcast , sum(packetBytes)"
scalar QosShowcaseIPv6.ap.wlan[0].mac.hcf.edca.edcaf[2] packetSentToPeerWithRetry:count 7
attr interpolationmode none
attr recordingmode count
attr source ieee80211Retry(packetSentToPeer)
attr title "packets sent: with retry, count"
scalar QosShowcaseIPv6.ap.wlan[0].mac.hcf.edca.edcaf[2] packetSentToPeerWithRetry:sum(packetBytes) 7930
attr interpolationmode none
attr recordingmode sum(packetBytes)
attr source ieee80211Retry(packetSentToPeer)
attr title "packets sent: with retry, sum(packetBytes)"
scalar QosShowcaseIPv6.ap.wlan[0].mac.hcf.edca.edcaf[2] packetSentToPeerWithoutRetry:count 960
attr interpolationmode none
attr recordingmode count
attr source ieee80211NotRetry(packetSentToPeer)
attr title "packets sent: without retry, count"
scalar QosShowcaseIPv6.ap.wlan[0].mac.hcf.edca.edcaf[2] packetSentToPeerWithoutRetry:sum(packetBytes) 1053340
attr interpolationmode none
attr recordingmode sum(packetBytes)
attr source ieee80211NotRetry(packetSentToPeer)
attr title "packets sent: without retry, sum(packetBytes)"
scalar QosShowcaseIPv6.ap.wlan[0].mac.hcf.edca.edcaf[2] channelOwnershipChanged:count 1388
attr interpolationmode sample-hold
attr recordingmode count
attr title "channel ownership, count"
par QosShowcaseIPv6.ap.wlan[0].mac.hcf.edca.edcaf[3].pendingQueue typename "\"inet.linklayer.ieee80211.mac.queue.PendingQueue\""
[...]
attr unit s
par QosShowcaseIPv6.visualizer.physicalLinkVisualizer fadeOutAnimationSpeed 0
par QosShowcaseIPv6.visualizer.physicalLinkVisualizer holdAnimationTime 0s
attr unit s
par QosShowcaseIPv6.visualizer.physicalLinkVisualizer zIndex 1
par QosShowcaseIPv6.visualizer.interfaceTableVisualizer typename "\"inet.visualizer.canvas.linklayer.InterfaceTableCanvasVisualizer\""
par QosShowcaseIPv6.visualizer.interfaceTableVisualizer visualizationTargetModule "\"^.^\""
par QosShowcaseIPv6.visualizer.interfaceTableVisualizer visualizationSubjectModule "\"^.^\""
par QosShowcaseIPv6.visualizer.interfaceTableVisualizer tags "\"\""
par QosShowcaseIPv6.visualizer.interfaceTableVisualizer networkNodeVisualizerModule "\"^.networkNodeVisualizer\""
par QosShowcaseIPv6.visualizer.interfaceTableVisualizer displayInterfaceTables false
par QosShowcaseIPv6.visualizer.interfaceTableVisualizer displayWiredInterfacesAtConnections true
par QosShowcaseIPv6.visualizer.interfaceTableVisualizer displayBackground false
par QosShowcaseIPv6.visualizer.interfaceTableVisualizer nodeFilter "\"*\""
attr mutable ""
par QosShowcaseIPv6.visualizer.interfaceTableVisualizer interfaceFilter "\"not(lo*)\""
attr mutable ""
par QosShowcaseIPv6.visualizer.interfaceTableVisualizer format "\"%N %\\\\%a%/%l\""
attr mutable ""
par QosShowcaseIPv6.visualizer.interfaceTableVisualizer placementHint "\"top\""
par QosShowcaseIPv6.visualizer.interfaceTableVisualizer placementPriority 0
par QosShowcaseIPv6.visualizer.interfaceTableVisualizer font "\"<default>\""
par QosShowcaseIPv6.visualizer.interfaceTableVisualizer textColor "\"#005030\""
par QosShowcaseIPv6.visualizer.interfaceTableVisualizer backgroundColor "\"white\""
par QosShowcaseIPv6.visualizer.interfaceTableVisualizer opacity 1
par QosShowcaseIPv6.visualizer.interfaceTableVisualizer zIndex 10
par QosShowcaseIPv6.visualizer.interfaceTableVisualizer anchor "\"l\""
attr enum l,r,t
par QosShowcaseIPv6.visualizer.dataLinkVisualizer typename "\"inet.visualizer.canvas.linklayer.DataLinkCanvasVisualizer\""
par QosShowcaseIPv6.visualizer.dataLinkVisualizer visualizationTargetModule "\"^.^\""
par QosShowcaseIPv6.visualizer.dataLinkVisualizer visualizationSubjectModule "\"^.^\""
par QosShowcaseIPv6.visualizer.dataLinkVisualizer tags "\"\""
par QosShowcaseIPv6.visualizer.dataLinkVisualizer displayLinks false
par QosShowcaseIPv6.visualizer.dataLinkVisualizer activityLevel "\"service\""
attr enum service,peer,protocol
par QosShowcaseIPv6.visualizer.dataLinkVisualizer nodeFilter "\"*\""
attr mutable ""
par QosShowcaseIPv6.visualizer.dataLinkVisualizer interfaceFilter "\"*\""
attr mutable ""
par QosShowcaseIPv6.visualizer.dataLinkVisualizer packetFilter "(omnetpp::cValueHolder)holder: \"*\""
attr mutable ""
par QosShowcaseIPv6.visualizer.dataLinkVisualizer lineColor "\"darkcyan\""
par QosShowcaseIPv6.visualizer.dataLinkVisualizer lineStyle "\"solid\""
par QosShowcaseIPv6.visualizer.dataLinkVisualizer lineWidth 3
par QosShowcaseIPv6.visualizer.dataLinkVisualizer lineShift 16
par QosShowcaseIPv6.visualizer.dataLinkVisualizer lineShiftMode "\"normal\""
par QosShowcaseIPv6.visualizer.dataLinkVisualizer lineContactSpacing 3
par QosShowcaseIPv6.visualizer.dataLinkVisualizer lineContactMode "\"rectangular\""
attr enum circular,rectangular
par QosShowcaseIPv6.visualizer.dataLinkVisualizer labelFormat "\"%n\""
par QosShowcaseIPv6.visualizer.dataLinkVisualizer labelFont "\"<default>, 8px\""
par QosShowcaseIPv6.visualizer.dataLinkVisualizer labelColor "\"darkcyan\""
par QosShowcaseIPv6.visualizer.dataLinkVisualizer fadeOutMode "\"realTime\""
attr enum realTime,animationTime,simulationTime
par QosShowcaseIPv6.visualizer.dataLinkVisualizer fadeOutTime 1s
attr unit s
par QosShowcaseIPv6.visualizer.dataLinkVisualizer fadeOutAnimationSpeed 0
par QosShowcaseIPv6.visualizer.dataLinkVisualizer holdAnimationTime 0s
attr unit s
par QosShowcaseIPv6.visualizer.dataLinkVisualizer zIndex 2
par QosShowcaseIPv6.visualizer.linkBreakVisualizer typename "\"inet.visualizer.canvas.linklayer.LinkBreakCanvasVisualizer\""
par QosShowcaseIPv6.visualizer.linkBreakVisualizer visualizationTargetModule "\"^.^\""
par QosShowcaseIPv6.visualizer.linkBreakVisualizer visualizationSubjectModule "\"^.^\""
par QosShowcaseIPv6.visualizer.linkBreakVisualizer tags "\"\""
par QosShowcaseIPv6.visualizer.linkBreakVisualizer displayLinkBreaks false
par QosShowcaseIPv6.visualizer.linkBreakVisualizer nodeFilter "\"*\""
attr mutable ""
par QosShowcaseIPv6.visualizer.linkBreakVisualizer interfaceFilter "\"*\""
attr mutable ""
par QosShowcaseIPv6.visualizer.linkBreakVisualizer packetFilter "(omnetpp::cValueHolder)holder: \"*\""
attr mutable ""
par QosShowcaseIPv6.visualizer.linkBreakVisualizer icon "\"status/stop\""
par QosShowcaseIPv6.visualizer.linkBreakVisualizer iconTintAmount 0
par QosShowcaseIPv6.visualizer.linkBreakVisualizer iconTintColor "\"\""
par QosShowcaseIPv6.visualizer.linkBreakVisualizer fadeOutMode "\"realTime\""
attr enum realTime,animationTime,simulationTime
par QosShowcaseIPv6.visualizer.linkBreakVisualizer fadeOutTime 1s
attr unit s
par QosShowcaseIPv6.visualizer.linkBreakVisualizer fadeOutAnimationSpeed 0
par QosShowcaseIPv6.visualizer.linkBreakVisualizer zIndex 2
par QosShowcaseIPv6.visualizer.ieee80211Visualizer typename "\"inet.visualizer.canvas.linklayer.Ieee80211CanvasVisualizer\""
par QosShowcaseIPv6.visualizer.ieee80211Visualizer visualizationTargetModule "\"^.^\""
par QosShowcaseIPv6.visualizer.ieee80211Visualizer visualizationSubjectModule "\"^.^\""
par QosShowcaseIPv6.visualizer.ieee80211Visualizer tags "\"\""
par QosShowcaseIPv6.visualizer.ieee80211Visualizer networkNodeVisualizerModule "\"^.networkNodeVisualizer\""
par QosShowcaseIPv6.visualizer.ieee80211Visualizer displayAssociations false
par QosShowcaseIPv6.visualizer.ieee80211Visualizer nodeFilter "\"*\""
attr mutable ""
par QosShowcaseIPv6.visualizer.ieee80211Visualizer interfaceFilter "\"*\""
attr mutable ""
par QosShowcaseIPv6.visualizer.ieee80211Visualizer minPower -85dBm
attr unit dBm
par QosShowcaseIPv6.visualizer.ieee80211Visualizer maxPower -50dBm
attr unit dBm
par QosShowcaseIPv6.visualizer.ieee80211Visualizer icons "\"misc/signal_power_0 misc/signal_power_1 misc/signal_power_2 misc/signal_power_3\""
par QosShowcaseIPv6.visualizer.ieee80211Visualizer iconColor "\"dark\""
par QosShowcaseIPv6.visualizer.ieee80211Visualizer labelFont "\"<default>\""
par QosShowcaseIPv6.visualizer.ieee80211Visualizer labelColor "\"black\""
par QosShowcaseIPv6.visualizer.ieee80211Visualizer placementHint "\"top\""
par QosShowcaseIPv6.visualizer.ieee80211Visualizer placementPriority 0
par QosShowcaseIPv6.visualizer.ieee80211Visualizer zIndex 2
par QosShowcaseIPv6.visualizer.networkRouteVisualizer typename "\"inet.visualizer.canvas.networklayer.NetworkRouteCanvasVisualizer\""
par QosShowcaseIPv6.visualizer.networkRouteVisualizer visualizationTargetModule "\"^.^\""
par QosShowcaseIPv6.visualizer.networkRouteVisualizer visualizationSubjectModule "\"^.^\""
par QosShowcaseIPv6.visualizer.networkRouteVisualizer tags "\"\""
par QosShowcaseIPv6.visualizer.networkRouteVisualizer displayRoutes false
par QosShowcaseIPv6.visualizer.networkRouteVisualizer startPathSignal "\"packetReceivedFromUpper\""
par QosShowcaseIPv6.visualizer.networkRouteVisualizer extendPathSignal "\"packetReceivedFromLower\""
par QosShowcaseIPv6.visualizer.networkRouteVisualizer endPathSignal "\"packetSentToUpper\""
par QosShowcaseIPv6.visualizer.networkRouteVisualizer nodeFilter "\"*\""
attr mutable ""
par QosShowcaseIPv6.visualizer.networkRouteVisualizer packetFilter "(omnetpp::cValueHolder)holder: \"*\""
attr mutable ""
par QosShowcaseIPv6.visualizer.networkRouteVisualizer lineColor "\"dark\""
par QosShowcaseIPv6.visualizer.networkRouteVisualizer lineStyle "\"solid\""
par QosShowcaseIPv6.visualizer.networkRouteVisualizer lineWidth 3
par QosShowcaseIPv6.visualizer.networkRouteVisualizer lineSmooth false
par QosShowcaseIPv6.visualizer.networkRouteVisualizer lineShift 16
par QosShowcaseIPv6.visualizer.networkRouteVisualizer lineShiftMode "\"normal\""
par QosShowcaseIPv6.visualizer.networkRouteVisualizer lineContactSpacing 3
par QosShowcaseIPv6.visualizer.networkRouteVisualizer lineContactMode "\"rectangular\""
attr enum circular,rectangular
par QosShowcaseIPv6.visualizer.networkRouteVisualizer labelFormat "\"%n\""
par QosShowcaseIPv6.visualizer.networkRouteVisualizer labelFont "\"<default>, 8px\""
par QosShowcaseIPv6.visualizer.networkRouteVisualizer labelColor "\"\""
par QosShowcaseIPv6.visualizer.networkRouteVisualizer fadeOutMode "\"realTime\""
attr enum realTime,animationTime,simulationTime
par QosShowcaseIPv6.visualizer.networkRouteVisualizer fadeOutTime 1s
attr unit s
par QosShowcaseIPv6.visualizer.networkRouteVisualizer fadeOutAnimationSpeed 0
par QosShowcaseIPv6.visualizer.networkRouteVisualizer zIndex 3
par QosShowcaseIPv6.visualizer.routingTableVisualizer typename "\"inet.visualizer.canvas.networklayer.RoutingTableCanvasVisualizer\""
par QosShowcaseIPv6.visualizer.routingTableVisualizer visualizationTargetModule "\"^.^\""
par QosShowcaseIPv6.visualizer.routingTableVisualizer visualizationSubjectModule "\"^.^\""
par QosShowcaseIPv6.visualizer.routingTableVisualizer tags "\"\""
par QosShowcaseIPv6.visualizer.routingTableVisualizer displayRoutingTables false
par QosShowcaseIPv6.visualizer.routingTableVisualizer displayRoutesIndividually true
par QosShowcaseIPv6.visualizer.routingTableVisualizer displayLabels true
par QosShowcaseIPv6.visualizer.routingTableVisualizer destinationFilter "\"*\""
attr mutable ""
par QosShowcaseIPv6.visualizer.routingTableVisualizer nodeFilter "\"*\""
attr mutable ""
par QosShowcaseIPv6.visualizer.routingTableVisualizer multicastSourceNodeFilter "\"*\""
attr mutable ""
par QosShowcaseIPv6.visualizer.routingTableVisualizer multicastSourceAddressFilter "\"*\""
attr mutable ""
par QosShowcaseIPv6.visualizer.routingTableVisualizer multicastGroupFilter "\"*\""
attr mutable ""
par QosShowcaseIPv6.visualizer.routingTableVisualizer lineColor "\"black\""
par QosShowcaseIPv6.visualizer.routingTableVisualizer lineStyle "\"solid\""
par QosShowcaseIPv6.visualizer.routingTableVisualizer lineWidth 2
par QosShowcaseIPv6.visualizer.routingTableVisualizer lineShift 16
par QosShowcaseIPv6.visualizer.routingTableVisualizer lineShiftMode "\"normal\""
par QosShowcaseIPv6.visualizer.routingTableVisualizer lineContactSpacing 3
par QosShowcaseIPv6.visualizer.routingTableVisualizer lineContactMode "\"rectangular\""
attr enum circular,rectangular
par QosShowcaseIPv6.visualizer.routingTableVisualizer labelFormat "\"%d/%m -> %g (%n)\""
attr mutable ""
par QosShowcaseIPv6.visualizer.routingTableVisualizer labelFont "\"<default>, 8px\""
par QosShowcaseIPv6.visualizer.routingTableVisualizer labelColor "\"black\""
par QosShowcaseIPv6.visualizer.routingTableVisualizer zIndex 0
par QosShowcaseIPv6.visualizer.transportRouteVisualizer typename "\"inet.visualizer.canvas.transportlayer.TransportRouteCanvasVisualizer\""
par QosShowcaseIPv6.visualizer.transportRouteVisualizer visualizationTargetModule "\"^.^\""
par QosShowcaseIPv6.visualizer.transportRouteVisualizer visualizationSubjectModule "\"^.^\""
par QosShowcaseIPv6.visualizer.transportRouteVisualizer tags "\"\""
par QosShowcaseIPv6.visualizer.transportRouteVisualizer displayRoutes false
par QosShowcaseIPv6.visualizer.transportRouteVisualizer startPathSignal "\"packetReceivedFromUpper\""
par QosShowcaseIPv6.visualizer.transportRouteVisualizer extendPathSignal "\"packetReceivedFromLower\""
par QosShowcaseIPv6.visualizer.transportRouteVisualizer endPathSignal "\"packetSentToUpper\""
par QosShowcaseIPv6.visualizer.transportRouteVisualizer nodeFilter "\"*\""
attr mutable ""
par QosShowcaseIPv6.visualizer.transportRouteVisualizer packetFilter "(omnetpp::cValueHolder)holder: \"*\""
attr mutable ""
par QosShowcaseIPv6.visualizer.transportRouteVisualizer lineColor "\"dark\""
par QosShowcaseIPv6.visualizer.transportRouteVisualizer lineStyle "\"solid\""
par QosShowcaseIPv6.visualizer.transportRouteVisualizer lineWidth 3
par QosShowcaseIPv6.visualizer.transportRouteVisualizer lineSmooth false
par QosShowcaseIPv6.visualizer.transportRouteVisualizer lineShift 16
par QosShowcaseIPv6.visualizer.transportRouteVisualizer lineShiftMode "\"normal\""
par QosShowcaseIPv6.visualizer.transportRouteVisualizer lineContactSpacing 3
par QosShowcaseIPv6.visualizer.transportRouteVisualizer lineContactMode "\"rectangular\""
attr enum circular,rectangular
par QosShowcaseIPv6.visualizer.transportRouteVisualizer labelFormat "\"%n\""
par QosShowcaseIPv6.visualizer.transportRouteVisualizer labelFont "\"<default>, 8px\""
par QosShowcaseIPv6.visualizer.transportRouteVisualizer labelColor "\"\""
par QosShowcaseIPv6.visualizer.transportRouteVisualizer fadeOutMode "\"realTime\""
attr enum realTime,animationTime,simulationTime
par QosShowcaseIPv6.visualizer.transportRouteVisualizer fadeOutTime 1s
attr unit s
par QosShowcaseIPv6.visualizer.transportRouteVisualizer fadeOutAnimationSpeed 0
par QosShowcaseIPv6.visualizer.transportRouteVisualizer zIndex 4
par QosShowcaseIPv6.visualizer.transportConnectionVisualizer typename "\"inet.visualizer.canvas.transportlayer.TransportConnectionCanvasVisualizer\""
par QosShowcaseIPv6.visualizer.transportConnectionVisualizer visualizationTargetModule "\"^.^\""
par QosShowcaseIPv6.visualizer.transportConnectionVisualizer visualizationSubjectModule "\"^.^\""
par QosShowcaseIPv6.visualizer.transportConnectionVisualizer tags "\"\""
par QosShowcaseIPv6.visualizer.transportConnectionVisualizer networkNodeVisualizerModule "\"^.networkNodeVisualizer\""
par QosShowcaseIPv6.visualizer.transportConnectionVisualizer displayTransportConnections false
par QosShowcaseIPv6.visualizer.transportConnectionVisualizer sourceNodeFilter "\"*\""
attr mutable ""
par QosShowcaseIPv6.visualizer.transportConnectionVisualizer sourcePortFilter "\"*\""
attr mutable ""
par QosShowcaseIPv6.visualizer.transportConnectionVisualizer destinationNodeFilter "\"*\""
attr mutable ""
par QosShowcaseIPv6.visualizer.transportConnectionVisualizer destinationPortFilter "\"*\""
attr mutable ""
par QosShowcaseIPv6.visualizer.transportConnectionVisualizer icon "\"misc/marker_s\""
par QosShowcaseIPv6.visualizer.transportConnectionVisualizer iconColor "\"dark\""
par QosShowcaseIPv6.visualizer.transportConnectionVisualizer labelFont "\"<default>\""
par QosShowcaseIPv6.visualizer.transportConnectionVisualizer labelColor "\"black\""
par QosShowcaseIPv6.visualizer.transportConnectionVisualizer placementHint "\"top\""
par QosShowcaseIPv6.visualizer.transportConnectionVisualizer placementPriority 0
par QosShowcaseIPv6.visualizer.transportConnectionVisualizer zIndex 4
par QosShowcaseIPv6.visualizer.failureProtectionConfigurationVisualizer typename "\"inet.visualizer.canvas.configurator.FailureProtectionConfigurationCanvasVisualizer\""
par QosShowcaseIPv6.visualizer.failureProtectionConfigurationVisualizer visualizationTargetModule "\"^.^\""
par QosShowcaseIPv6.visualizer.failureProtectionConfigurationVisualizer visualizationSubjectModule "\"^.^\""
par QosShowcaseIPv6.visualizer.failureProtectionConfigurationVisualizer tags "\"\""
par QosShowcaseIPv6.visualizer.failureProtectionConfigurationVisualizer displayTrees false
par QosShowcaseIPv6.visualizer.failureProtectionConfigurationVisualizer lineColor "\"dark\""
par QosShowcaseIPv6.visualizer.failureProtectionConfigurationVisualizer lineStyle "\"solid\""
par QosShowcaseIPv6.visualizer.failureProtectionConfigurationVisualizer lineWidth 3
par QosShowcaseIPv6.visualizer.failureProtectionConfigurationVisualizer lineSmooth false
par QosShowcaseIPv6.visualizer.failureProtectionConfigurationVisualizer lineShift 16
par QosShowcaseIPv6.visualizer.failureProtectionConfigurationVisualizer lineShiftMode "\"normal\""
par QosShowcaseIPv6.visualizer.failureProtectionConfigurationVisualizer lineContactSpacing 3
par QosShowcaseIPv6.visualizer.failureProtectionConfigurationVisualizer lineContactMode "\"rectangular\""
attr enum circular,rectangular
par QosShowcaseIPv6.visualizer.failureProtectionConfigurationVisualizer failureProtectionConfiguratorModule "\"failureProtectionConfigurator\""
par QosShowcaseIPv6.visualizer.failureProtectionConfigurationVisualizer streamFilter "\"*\""
par QosShowcaseIPv6.visualizer.failureProtectionConfigurationVisualizer zIndex 3
par QosShowcaseIPv6.visualizer.streamRedundancyConfigurationVisualizer typename "\"inet.visualizer.canvas.configurator.StreamRedundancyConfigurationCanvasVisualizer\""
par QosShowcaseIPv6.visualizer.streamRedundancyConfigurationVisualizer visualizationTargetModule "\"^.^\""
par QosShowcaseIPv6.visualizer.streamRedundancyConfigurationVisualizer visualizationSubjectModule "\"^.^\""
par QosShowcaseIPv6.visualizer.streamRedundancyConfigurationVisualizer tags "\"\""
par QosShowcaseIPv6.visualizer.streamRedundancyConfigurationVisualizer displayTrees false
par QosShowcaseIPv6.visualizer.streamRedundancyConfigurationVisualizer lineColor "\"dark\""
par QosShowcaseIPv6.visualizer.streamRedundancyConfigurationVisualizer lineStyle "\"solid\""
par QosShowcaseIPv6.visualizer.streamRedundancyConfigurationVisualizer lineWidth 3
par QosShowcaseIPv6.visualizer.streamRedundancyConfigurationVisualizer lineSmooth false
par QosShowcaseIPv6.visualizer.streamRedundancyConfigurationVisualizer lineShift 16
par QosShowcaseIPv6.visualizer.streamRedundancyConfigurationVisualizer lineShiftMode "\"normal\""
par QosShowcaseIPv6.visualizer.streamRedundancyConfigurationVisualizer lineContactSpacing 3
par QosShowcaseIPv6.visualizer.streamRedundancyConfigurationVisualizer lineContactMode "\"rectangular\""
attr enum circular,rectangular
par QosShowcaseIPv6.visualizer.streamRedundancyConfigurationVisualizer streamRedundancyConfiguratorModule "\"streamRedundancyConfigurator\""
par QosShowcaseIPv6.visualizer.streamRedundancyConfigurationVisualizer streamFilter "\"*\""
par QosShowcaseIPv6.visualizer.streamRedundancyConfigurationVisualizer zIndex 3
par QosShowcaseIPv6.visualizer.channelVisualizer typename "\"inet.visualizer.canvas.physicallayer.ChannelCanvasVisualizer\""
par QosShowcaseIPv6.visualizer.channelVisualizer visualizationTargetModule "\"^.^\""
par QosShowcaseIPv6.visualizer.channelVisualizer visualizationSubjectModule "\"^.^\""
par QosShowcaseIPv6.visualizer.channelVisualizer tags "\"\""
par QosShowcaseIPv6.visualizer.channelVisualizer displayChannelActivity false
par QosShowcaseIPv6.visualizer.channelVisualizer nodeFilter "\"*\""
attr mutable ""
par QosShowcaseIPv6.visualizer.channelVisualizer packetFilter "(omnetpp::cValueHolder)holder: \"*\""
attr mutable ""
par QosShowcaseIPv6.visualizer.channelVisualizer lineColor "\"blue\""
par QosShowcaseIPv6.visualizer.channelVisualizer lineStyle "\"solid\""
par QosShowcaseIPv6.visualizer.channelVisualizer lineWidth 3
par QosShowcaseIPv6.visualizer.channelVisualizer lineShift 16
par QosShowcaseIPv6.visualizer.channelVisualizer lineShiftMode "\"normal\""
par QosShowcaseIPv6.visualizer.channelVisualizer lineContactSpacing 3
par QosShowcaseIPv6.visualizer.channelVisualizer lineContactMode "\"rectangular\""
attr enum circular,rectangular
par QosShowcaseIPv6.visualizer.channelVisualizer labelFormat "\"%n\""
par QosShowcaseIPv6.visualizer.channelVisualizer labelFont "\"<default>, 8px\""
par QosShowcaseIPv6.visualizer.channelVisualizer labelColor "\"blue\""
par QosShowcaseIPv6.visualizer.channelVisualizer fadeOutMode "\"realTime\""
attr enum realTime,animationTime,simulationTime
par QosShowcaseIPv6.visualizer.channelVisualizer fadeOutTime 1s
attr unit s
par QosShowcaseIPv6.visualizer.channelVisualizer fadeOutAnimationSpeed 0
par QosShowcaseIPv6.visualizer.channelVisualizer holdAnimationTime 0s
attr unit s
par QosShowcaseIPv6.visualizer.channelVisualizer zIndex 1
par QosShowcaseIPv6.visualizer typename "\"inet.visualizer.canvas.integrated.IntegratedCanvasVisualizer\""
par QosShowcaseIPv6 typename "\"qos_implementation.simulations.QosShowcaseIPv6\""

