version 3
run QosIPv6-0-20250403-23:20:46-28588
attr configname QosIPv6
attr datetime 20250403-23:20:46
attr datetimef 20250403-232046
attr experiment QosIPv6
attr inifile omnetpp.ini
attr iterationvars ""
attr iterationvarsd ""
attr iterationvarsf ""
attr measurement ""
attr network QosShowcaseIPv6
attr processid 28588
attr repetition 0
attr replication #0
attr resultdir results
attr runnumber 0
attr seedset 0
config image-path ../../inet-master/images
config extends NonQosIPv6
config *.*.wlan[*].mac.qosStation true
config *.*.wlan[*].classifier.typename QosClassifier
config network QosShowcaseIPv6
config sim-time-limit 10s
config *.ap.hasIpv4 false
config *.server.hasIpv4 false
config *.client.hasIpv4 false
config *.ap.hasIpv6 true
config *.server.hasIpv6 true
config *.client.hasIpv6 true
config *.configurator.assignAddresses true
config *.configurator.useAutoConfig true
config *.configurator.addStaticRoutes false
config *.*.wlan[*].bitrate 54Mbps
config *.client.numApps 4
config *.client.app[*].typename UdpBasicApp
config *.client.app[*].destAddresses "\"server\""
config *.client.app[*].startTime 1.0s+this.sendInterval*index/4
config *.client.app[*].stopTime 6.0s
config *.client.app[0].destPort 21
config *.client.app[1].destPort 80
config *.client.app[2].destPort 4000
config *.client.app[3].destPort 5000
config *.client.app[0].packetName "\"background\""
config *.client.app[1].packetName "\"best effort\""
config *.client.app[2].packetName "\"video\""
config *.client.app[3].packetName "\"voice\""
config *.server.numApps 4
config *.server.app[*].typename UdpSink
config *.server.app[0].localPort 21
config *.server.app[1].localPort 80
config *.server.app[2].localPort 4000
config *.server.app[3].localPort 5000
config *.client.app[0].messageLength 900B
config *.client.app[0].sendInterval normal(300us,10us)
config *.client.app[1].messageLength 900B
config *.client.app[1].sendInterval normal(250us,10us)
config *.client.app[2].messageLength 600B
config *.client.app[2].sendInterval normal(1ms,10us)
config *.client.app[3].messageLength 125B
config *.client.app[3].sendInterval normal(10ms,10us)
config *.client.app[*].recordScalar true
config *.client.app[*].recordVector true
config *.server.app[*].recordScalar true
config *.server.app[*].recordVector true

par QosShowcaseIPv6.configurator typename "\"inet.networklayer.configurator.ipv6.Ipv6FlatNetworkConfigurator\""
par QosShowcaseIPv6.ap.radioIn[0].channel typename "\"ned.IdealChannel\""
par QosShowcaseIPv6.ap.interfaceTable typename "\"inet.networklayer.common.InterfaceTable\""
par QosShowcaseIPv6.ap.interfaceTable displayAddresses false
par QosShowcaseIPv6.ap.macTable typename "\"inet.linklayer.ethernet.common.MacForwardingTable\""
par QosShowcaseIPv6.ap.macTable agingTime 120s
attr unit s
par QosShowcaseIPv6.ap.macTable forwardingTable []
attr mutable ""
par QosShowcaseIPv6.ap.macTable forwardingTableFile "\"\""
par QosShowcaseIPv6.ap.macTable interfaceTableModule "\"QosShowcaseIPv6.ap.interfaceTable\""
par QosShowcaseIPv6.ap.macTable displayStringTextFormat "\"addr: %a\\nvlan: %v\""
par QosShowcaseIPv6.ap.mobility typename "\"inet.mobility.static.StationaryMobility\""
par QosShowcaseIPv6.ap.mobility subjectModule "\"^\""
par QosShowcaseIPv6.ap.mobility coordinateSystemModule "\"\""
par QosShowcaseIPv6.ap.mobility displayStringTextFormat "\"p: %p\\nv: %v\""
attr mutable ""
par QosShowcaseIPv6.ap.mobility updateDisplayString true
par QosShowcaseIPv6.ap.mobility constraintAreaMinX "-inf m"
attr unit m
par QosShowcaseIPv6.ap.mobility constraintAreaMinY "-inf m"
attr unit m
par QosShowcaseIPv6.ap.mobility constraintAreaMinZ "-inf m"
attr unit m
par QosShowcaseIPv6.ap.mobility constraintAreaMaxX "inf m"
attr unit m
par QosShowcaseIPv6.ap.mobility constraintAreaMaxY "inf m"
attr unit m
par QosShowcaseIPv6.ap.mobility constraintAreaMaxZ "inf m"
attr unit m
par QosShowcaseIPv6.ap.mobility initialX "nan m"
attr unit m
par QosShowcaseIPv6.ap.mobility initialY "nan m"
attr unit m
par QosShowcaseIPv6.ap.mobility initialZ 0m
attr unit m
par QosShowcaseIPv6.ap.mobility initialLatitude "nan deg"
attr unit deg
par QosShowcaseIPv6.ap.mobility initialLongitude "nan deg"
attr unit deg
par QosShowcaseIPv6.ap.mobility initialAltitude 0m
attr unit m
par QosShowcaseIPv6.ap.mobility initialHeading 0deg
attr unit deg
par QosShowcaseIPv6.ap.mobility initialElevation 0deg
attr unit deg
par QosShowcaseIPv6.ap.mobility initialBank 0deg
attr unit deg
par QosShowcaseIPv6.ap.mobility initFromDisplayString true
par QosShowcaseIPv6.ap.mobility updateFromDisplayString true
par QosShowcaseIPv6.ap.li typename "\"inet.common.MessageDispatcher\""
par QosShowcaseIPv6.ap.li displayStringTextFormat "\"processed %p pk (%l)\""
par QosShowcaseIPv6.ap.li interfaceTableModule "\"QosShowcaseIPv6.ap.interfaceTable\""
par QosShowcaseIPv6.ap.li forwardServiceRegistration true
par QosShowcaseIPv6.ap.li forwardProtocolRegistration true
par QosShowcaseIPv6.ap.li interfaceMapping {}
par QosShowcaseIPv6.ap.li serviceMapping {}
par QosShowcaseIPv6.ap.li protocolMapping {}
par QosShowcaseIPv6.ap.wlan[0].radioIn.channel typename "\"ned.IdealChannel\""
par QosShowcaseIPv6.ap.wlan[0].llc.upperLayerOut.channel typename "\"ned.IdealChannel\""
par QosShowcaseIPv6.ap.wlan[0].classifier.out.channel typename "\"ned.IdealChannel\""
par QosShowcaseIPv6.ap.wlan[0].upperLayerIn.channel typename "\"ned.IdealChannel\""
par QosShowcaseIPv6.ap.wlan[0].mib typename "\"inet.linklayer.ieee80211.mib.Ieee80211Mib\""
par QosShowcaseIPv6.ap.wlan[0].llc typename "\"inet.linklayer.ieee80211.portal.Ieee80211Portal\""
par QosShowcaseIPv6.ap.wlan[0].llc fcsMode "\"declared\""
attr enum declared,computed
par QosShowcaseIPv6.ap.wlan[0].classifier typename "\"inet.linklayer.common.QosClassifier\""
par QosShowcaseIPv6.ap.wlan[0].classifier ipProtocolUpMap "\"1 BE 58 BE\""
par QosShowcaseIPv6.ap.wlan[0].classifier udpPortUpMap "\"21 BK 80 BE 4000 VI 5000 VO\""
par QosShowcaseIPv6.ap.wlan[0].classifier tcpPortUpMap "\"21 BK 80 BE 4000 VI 5000 VO\""
par QosShowcaseIPv6.ap.wlan[0].classifier defaultUp "\"BE\""
par QosShowcaseIPv6.ap.wlan[0].mgmt typename "\"inet.linklayer.ieee80211.mgmt.Ieee80211MgmtAp\""
par QosShowcaseIPv6.ap.wlan[0].mgmt ssid "\"SSID\""
par QosShowcaseIPv6.ap.wlan[0].mgmt beaconInterval 0.1s
attr unit s
par QosShowcaseIPv6.ap.wlan[0].mgmt numAuthSteps 4
par QosShowcaseIPv6.ap.wlan[0].mgmt interfaceTableModule "\"QosShowcaseIPv6.ap.interfaceTable\""
par QosShowcaseIPv6.ap.wlan[0].mgmt radioModule "\"^.radio\""
par QosShowcaseIPv6.ap.wlan[0].mgmt mibModule "\"QosShowcaseIPv6.ap.wlan[0].mib\""
par QosShowcaseIPv6.ap.wlan[0].mgmt macModule "\"QosShowcaseIPv6.ap.wlan[0].mac\""
par QosShowcaseIPv6.ap.wlan[0].mac.dcf.channelAccess.pendingQueue typename "\"inet.linklayer.ieee80211.mac.queue.PendingQueue\""
par QosShowcaseIPv6.ap.wlan[0].mac.dcf.channelAccess.pendingQueue displayStringTextFormat "\"contains %p pk (%l) pushed %u\\npulled %o removed %r dropped %d\""
par QosShowcaseIPv6.ap.wlan[0].mac.dcf.channelAccess.pendingQueue packetCapacity 100
par QosShowcaseIPv6.ap.wlan[0].mac.dcf.channelAccess.pendingQueue dataCapacity -1b
attr unit b
par QosShowcaseIPv6.ap.wlan[0].mac.dcf.channelAccess.pendingQueue dropperClass "\"inet::queueing::PacketAtCollectionEndDropper\""
par QosShowcaseIPv6.ap.wlan[0].mac.dcf.channelAccess.pendingQueue comparatorClass "\"inet::ieee80211::MgmtOverDataComparator\""
par QosShowcaseIPv6.ap.wlan[0].mac.dcf.channelAccess.pendingQueue bufferModule "\"\""
scalar QosShowcaseIPv6.ap.wlan[0].mac.dcf.channelAccess.pendingQueue queueLength:last 0
attr autoWarmupFilter false
attr interpolationmode sample-hold
attr recordingmode last
attr source "warmup(atomic(constant0(packetPushEnded) + count(packetPushStarted) - count(packetPulled) - count(packetRemoved) - count(packetDropped)))"
attr title "queue length, last"
attr unit pk
scalar QosShowcaseIPv6.ap.wlan[0].mac.dcf.channelAccess.pendingQueue queueLength:max 0
attr autoWarmupFilter false
attr interpolationmode sample-hold
attr recordingmode max
attr source "warmup(atomic(constant0(packetPushEnded) + count(packetPushStarted) - count(packetPulled) - count(packetRemoved) - count(packetDropped)))"
attr title "queue length, max"
attr unit pk
scalar QosShowcaseIPv6.ap.wlan[0].mac.dcf.channelAccess.pendingQueue queueLength:timeavg 0
attr autoWarmupFilter false
attr interpolationmode sample-hold
attr recordingmode timeavg
attr source "warmup(atomic(constant0(packetPushEnded) + count(packetPushStarted) - count(packetPulled) - count(packetRemoved) - count(packetDropped)))"
attr title "queue length, timeavg"
attr unit pk
scalar QosShowcaseIPv6.ap.wlan[0].mac.dcf.channelAccess.pendingQueue queueBitLength:last 0
attr autoWarmupFilter false
attr interpolationmode sample-hold
attr recordingmode last
attr source "warmup(atomic(constant0(packetPushEnded) + sum(packetLength(packetPushStarted)) - sum(packetLength(packetPulled)) - sum(packetLength(packetRemoved)) - sum(packetLength(packetDropped))))"
attr title "queue bit length, last"
attr unit b
scalar QosShowcaseIPv6.ap.wlan[0].mac.dcf.channelAccess.pendingQueue queueBitLength:max 0
attr autoWarmupFilter false
attr interpolationmode sample-hold
attr recordingmode max
attr source "warmup(atomic(constant0(packetPushEnded) + sum(packetLength(packetPushStarted)) - sum(packetLength(packetPulled)) - sum(packetLength(packetRemoved)) - sum(packetLength(packetDropped))))"
attr title "queue bit length, max"
attr unit b
scalar QosShowcaseIPv6.ap.wlan[0].mac.dcf.channelAccess.pendingQueue queueBitLength:timeavg 0
attr autoWarmupFilter false
attr interpolationmode sample-hold
attr recordingmode timeavg
attr source "warmup(atomic(constant0(packetPushEnded) + sum(packetLength(packetPushStarted)) - sum(packetLength(packetPulled)) - sum(packetLength(packetRemoved)) - sum(packetLength(packetDropped))))"
attr title "queue bit length, timeavg"
attr unit b
statistic QosShowcaseIPv6.ap.wlan[0].mac.dcf.channelAccess.pendingQueue queueingTime:histogram
field count 0
field mean nan
field stddev nan
field min nan
field max nan
field sum 0
field sqrsum 0
attr interpolationmode none
attr recordingmode histogram
attr source queueingTime(packetPulled)
attr title "queueing times"
attr unit s
bin	-inf	0
bin	0	0
bin	1	0
scalar QosShowcaseIPv6.ap.wlan[0].mac.dcf.channelAccess.pendingQueue outgoingPackets:count 0
attr recordingmode count
attr source packetPulled
attr title "outgoing packets, count"
attr unit pk
scalar QosShowcaseIPv6.ap.wlan[0].mac.dcf.channelAccess.pendingQueue outgoingPacketLengths:sum 0
attr interpolationmode none
attr recordingmode sum
attr source packetLength(packetPulled)
attr title "outgoing packet lengths, sum"
attr unit b
statistic QosShowcaseIPv6.ap.wlan[0].mac.dcf.channelAccess.pendingQueue outgoingPacketLengths:histogram
field count 0
field mean nan
field stddev nan
field min nan
field max nan
field sum 0
field sqrsum 0
attr interpolationmode none
attr recordingmode histogram
attr source packetLength(packetPulled)
attr title "outgoing packet lengths"
attr unit b
bin	-inf	0
bin	0	0
bin	1	0
statistic QosShowcaseIPv6.ap.wlan[0].mac.dcf.channelAccess.pendingQueue flowQueueingTime:histogram
field count 0
field mean nan
field stddev nan
field min nan
field max nan
field sum 0
field sqrsum 0
attr interpolationmode none
attr recordingmode histogram
attr source queueingTime(demuxFlow(packetPulled))
attr title "flow queueing times"
attr unit s
bin	-inf	0
bin	0	0
bin	1	0
scalar QosShowcaseIPv6.ap.wlan[0].mac.dcf.channelAccess.pendingQueue incomingPackets:count 0
attr recordingmode count
attr source packetPushStarted
attr title "incoming packets, count"
attr unit pk
scalar QosShowcaseIPv6.ap.wlan[0].mac.dcf.channelAccess.pendingQueue incomingPacketLengths:sum 0
attr interpolationmode none
attr recordingmode sum
attr source packetLength(packetPushStarted)
attr title "incoming packet lengths, sum"
attr unit b
statistic QosShowcaseIPv6.ap.wlan[0].mac.dcf.channelAccess.pendingQueue incomingPacketLengths:histogram
field count 0
field mean nan
field stddev nan
field min nan
field max nan
field sum 0
field sqrsum 0
attr interpolationmode none
attr recordingmode histogram
attr source packetLength(packetPushStarted)
attr title "incoming packet lengths"
attr unit b
bin	-inf	0
bin	0	0
bin	1	0
scalar QosShowcaseIPv6.ap.wlan[0].mac.dcf.channelAccess.pendingQueue droppedPacketsQueueOverflow:count 0
attr interpolationmode none
attr recordingmode count
attr source packetDropReasonIsQueueOverflow(packetDropped)
attr title "dropped packets: queue overflow, count"
attr unit pk
scalar QosShowcaseIPv6.ap.wlan[0].mac.dcf.channelAccess.pendingQueue droppedPacketLengthsQueueOverflow:sum 0
attr interpolationmode none
attr recordingmode sum
attr source packetLength(packetDropReasonIsQueueOverflow(packetDropped))
attr title "dropped packet lengths: queue overflow, sum"
attr unit b
par QosShowcaseIPv6.ap.wlan[0].mac.dcf.channelAccess.inProgressFrames typename "\"inet.linklayer.ieee80211.mac.queue.InProgressFrames\""
par QosShowcaseIPv6.ap.wlan[0].mac.dcf.channelAccess.inProgressFrames pendingQueueModule "\"^.pendingQueue\""
par QosShowcaseIPv6.ap.wlan[0].mac.dcf.channelAccess.inProgressFrames originatorMacDataServiceModule "\"^.^.originatorMacDataService\""
par QosShowcaseIPv6.ap.wlan[0].mac.dcf.channelAccess.inProgressFrames ackHandlerModule "\"^.^.ackHandler\""
statistic QosShowcaseIPv6.ap.wlan[0].mac.dcf.channelAccess.inProgressFrames queueingTime:histogram
field count 0
field mean nan
field stddev nan
field min nan
field max nan
field sum 0
field sqrsum 0
attr interpolationmode none
attr recordingmode histogram
attr source queueingTime(packetDequeued)
attr title "queueing times"
bin	-inf	0
bin	0	0
bin	1	0
scalar QosShowcaseIPv6.ap.wlan[0].mac.dcf.channelAccess.inProgressFrames queueLength:max 0
attr autoWarmupFilter false
attr interpolationmode sample-hold
attr recordingmode max
attr source "warmup(count(packetEnqueued) - count(packetDequeued))"
attr title "queue length, max"
scalar QosShowcaseIPv6.ap.wlan[0].mac.dcf.channelAccess.inProgressFrames queueLength:timeavg 0
attr autoWarmupFilter false
attr interpolationmode sample-hold
attr recordingmode timeavg
attr source "warmup(count(packetEnqueued) - count(packetDequeued))"
attr title "queue length, timeavg"
par QosShowcaseIPv6.ap.wlan[0].mac.dcf.channelAccess.contention typename "\"inet.linklayer.ieee80211.mac.contention.Contention\""
par QosShowcaseIPv6.ap.wlan[0].mac.dcf.channelAccess.contention initialChannelBusy true
par QosShowcaseIPv6.ap.wlan[0].mac.dcf.channelAccess.contention backoffOptimization true
scalar QosShowcaseIPv6.ap.wlan[0].mac.dcf.channelAccess.contention channelAccessGranted:count 0
attr recordingmode count
attr title "channel access granted, count"
scalar QosShowcaseIPv6.ap.wlan[0].mac.dcf.channelAccess.contention stateChanged:count 250
attr enum IDLE,DEFER,IFS_AND_BACKOFF
attr interpolationmode none
attr recordingmode count
attr title "contention state changed, count"
attr type enum
par QosShowcaseIPv6.ap.wlan[0].mac.dcf.channelAccess typename "\"inet.linklayer.ieee80211.mac.channelaccess.Dcaf\""
par QosShowcaseIPv6.ap.wlan[0].mac.dcf.channelAccess difsn -1
par QosShowcaseIPv6.ap.wlan[0].mac.dcf.channelAccess cwMin -1
par QosShowcaseIPv6.ap.wlan[0].mac.dcf.channelAccess cwMax -1
par QosShowcaseIPv6.ap.wlan[0].mac.dcf.channelAccess rxModule "\"^.^.rx\""
scalar QosShowcaseIPv6.ap.wlan[0].mac.dcf.channelAccess channelOwnershipChanged:count 0
attr interpolationmode sample-hold
attr recordingmode count
attr title "channel ownership, count"
par QosShowcaseIPv6.ap.wlan[0].mac.dcf.originatorMacDataService.fragmentationPolicy typename "\"inet.linklayer.ieee80211.mac.fragmentation.BasicFragmentationPolicy\""
par QosShowcaseIPv6.ap.wlan[0].mac.dcf.originatorMacDataService.fragmentationPolicy fragmentationThreshold 1500B
attr unit B
par QosShowcaseIPv6.ap.wlan[0].mac.dcf.originatorMacDataService typename "\"inet.linklayer.ieee80211.mac.originator.OriginatorMacDataService\""
scalar QosShowcaseIPv6.ap.wlan[0].mac.dcf.originatorMacDataService packetAggregated:count 0
attr recordingmode count
attr title "packets aggregated, count"
scalar QosShowcaseIPv6.ap.wlan[0].mac.dcf.originatorMacDataService packetFragmented:count 0
attr recordingmode count
attr title "packets fragmented, count"
par QosShowcaseIPv6.ap.wlan[0].mac.dcf.recipientMacDataService typename "\"inet.linklayer.ieee80211.mac.recipient.RecipientMacDataService\""
scalar QosShowcaseIPv6.ap.wlan[0].mac.dcf.recipientMacDataService packetDropDuplicateDetected:count 0
attr interpolationmode none
attr recordingmode count
attr source packetDropReasonIsDuplicateDetected(packetDropped)
attr title "packet drops: duplicate detected, count"
scalar QosShowcaseIPv6.ap.wlan[0].mac.dcf.recipientMacDataService packetDropDuplicateDetected:sum(packetBytes) 0
attr interpolationmode none
attr recordingmode sum(packetBytes)
attr source packetDropReasonIsDuplicateDetected(packetDropped)
attr title "packet drops: duplicate detected, sum(packetBytes)"
scalar QosShowcaseIPv6.ap.wlan[0].mac.dcf.recipientMacDataService packetDeaggregated:count 0
attr recordingmode count
attr title "packets deaggregated, count"
scalar QosShowcaseIPv6.ap.wlan[0].mac.dcf.recipientMacDataService packetDefragmented:count 0
attr recordingmode count
attr title "packets defragmented, count"
par QosShowcaseIPv6.ap.wlan[0].mac.dcf.rateSelection typename "\"inet.linklayer.ieee80211.mac.rateselection.RateSelection\""
par QosShowcaseIPv6.ap.wlan[0].mac.dcf.rateSelection rateControlModule "\"^.rateControl\""
par QosShowcaseIPv6.ap.wlan[0].mac.dcf.rateSelection multicastFrameBitrate -1bps
attr unit bps
par QosShowcaseIPv6.ap.wlan[0].mac.dcf.rateSelection responseAckFrameBitrate -1bps
attr unit bps
par QosShowcaseIPv6.ap.wlan[0].mac.dcf.rateSelection responseCtsFrameBitrate -1bps
attr unit bps
par QosShowcaseIPv6.ap.wlan[0].mac.dcf.rateSelection dataFrameBitrate 5.4e+07bps
attr unit bps
par QosShowcaseIPv6.ap.wlan[0].mac.dcf.rateSelection dataFrameBandwidth "nan Hz"
attr unit Hz
par QosShowcaseIPv6.ap.wlan[0].mac.dcf.rateSelection dataFrameNumSpatialStreams -1
par QosShowcaseIPv6.ap.wlan[0].mac.dcf.rateSelection mgmtFrameBitrate -1bps
attr unit bps
par QosShowcaseIPv6.ap.wlan[0].mac.dcf.rateSelection controlFrameBitrate -1bps
attr unit bps
par QosShowcaseIPv6.ap.wlan[0].mac.dcf.recoveryProcedure typename "\"inet.linklayer.ieee80211.mac.originator.NonQosRecoveryProcedure\""
par QosShowcaseIPv6.ap.wlan[0].mac.dcf.recoveryProcedure cwCalculatorModule "\"^.channelAccess\""
par QosShowcaseIPv6.ap.wlan[0].mac.dcf.recoveryProcedure rtsPolicyModule "\"^.rtsPolicy\""
par QosShowcaseIPv6.ap.wlan[0].mac.dcf.recoveryProcedure shortRetryLimit 7
par QosShowcaseIPv6.ap.wlan[0].mac.dcf.recoveryProcedure longRetryLimit 4
scalar QosShowcaseIPv6.ap.wlan[0].mac.dcf.recoveryProcedure retryLimitReached:count 0
attr recordingmode count
attr title "retry limit reached, count"
par QosShowcaseIPv6.ap.wlan[0].mac.dcf.originatorProtectionMechanism typename "\"inet.linklayer.ieee80211.mac.protectionmechanism.OriginatorProtectionMechanism\""
par QosShowcaseIPv6.ap.wlan[0].mac.dcf.originatorProtectionMechanism rateSelectionModule "\"^.rateSelection\""
par QosShowcaseIPv6.ap.wlan[0].mac.dcf.ackHandler typename "\"inet.linklayer.ieee80211.mac.originator.AckHandler\""
par QosShowcaseIPv6.ap.wlan[0].mac.dcf.originatorAckPolicy typename "\"inet.linklayer.ieee80211.mac.originator.OriginatorAckPolicy\""
par QosShowcaseIPv6.ap.wlan[0].mac.dcf.originatorAckPolicy rateSelectionModule "\"^.rateSelection\""
par QosShowcaseIPv6.ap.wlan[0].mac.dcf.originatorAckPolicy ackTimeout -1s
attr unit s
par QosShowcaseIPv6.ap.wlan[0].mac.dcf.recipientAckPolicy typename "\"inet.linklayer.ieee80211.mac.recipient.RecipientAckPolicy\""
par QosShowcaseIPv6.ap.wlan[0].mac.dcf.recipientAckPolicy rateSelectionModule "\"^.rateSelection\""
par QosShowcaseIPv6.ap.wlan[0].mac.dcf.rtsPolicy typename "\"inet.linklayer.ieee80211.mac.originator.RtsPolicy\""
par QosShowcaseIPv6.ap.wlan[0].mac.dcf.rtsPolicy rateSelectionModule "\"^.rateSelection\""
par QosShowcaseIPv6.ap.wlan[0].mac.dcf.rtsPolicy ctsTimeout -1s
attr unit s
par QosShowcaseIPv6.ap.wlan[0].mac.dcf.rtsPolicy rtsThreshold 2346B
attr unit B
par QosShowcaseIPv6.ap.wlan[0].mac.dcf.ctsPolicy typename "\"inet.linklayer.ieee80211.mac.recipient.CtsPolicy\""
par QosShowcaseIPv6.ap.wlan[0].mac.dcf.ctsPolicy rxModule "\"^.^.rx\""
par QosShowcaseIPv6.ap.wlan[0].mac.dcf.ctsPolicy rateSelectionModule "\"^.rateSelection\""
par QosShowcaseIPv6.ap.wlan[0].mac.dcf typename "\"inet.linklayer.ieee80211.mac.coordinationfunction.Dcf\""
par QosShowcaseIPv6.ap.wlan[0].mac.dcf rxModule "\"^.rx\""
par QosShowcaseIPv6.ap.wlan[0].mac.dcf txModule "\"^.tx\""
scalar QosShowcaseIPv6.ap.wlan[0].mac.dcf packetReceivedFromPeer:count 0
attr interpolationmode none
attr recordingmode count
attr title "packets received, count"
scalar QosShowcaseIPv6.ap.wlan[0].mac.dcf packetReceivedFromPeer:sum(packetBytes) 0
attr interpolationmode none
attr recordingmode sum(packetBytes)
attr title "packets received, sum(packetBytes)"
scalar QosShowcaseIPv6.ap.wlan[0].mac.dcf packetReceivedFromPeerUnicast:count 0
attr interpolationmode none
attr recordingmode count
attr source ieee80211Unicast(packetReceivedFromPeer)
attr title "packets received: unicast, count"
scalar QosShowcaseIPv6.ap.wlan[0].mac.dcf packetReceivedFromPeerUnicast:sum(packetBytes) 0
attr interpolationmode none
attr recordingmode sum(packetBytes)
attr source ieee80211Unicast(packetReceivedFromPeer)
attr title "packets received: unicast, sum(packetBytes)"
scalar QosShowcaseIPv6.ap.wlan[0].mac.dcf packetReceivedFromPeerMulticast:count 0
attr interpolationmode none
attr recordingmode count
attr source ieee80211Multicast(packetReceivedFromPeer)
attr title "packets received: multicast, count"
scalar QosShowcaseIPv6.ap.wlan[0].mac.dcf packetReceivedFromPeerMulticast:sum(packetBytes) 0
attr interpolationmode none
attr recordingmode sum(packetBytes)
attr source ieee80211Multicast(packetReceivedFromPeer)
attr title "packets received: multicast, sum(packetBytes)"
scalar QosShowcaseIPv6.ap.wlan[0].mac.dcf packetReceivedFromPeerBroadcast:count 0
attr interpolationmode none
attr recordingmode count
attr source ieee80211Broadcast(packetReceivedFromPeer)
attr title "packets received: broadcast, count"
scalar QosShowcaseIPv6.ap.wlan[0].mac.dcf packetReceivedFromPeerBroadcast:sum(packetBytes) 0
attr interpolationmode none
attr recordingmode sum(packetBytes)
attr source ieee80211Broadcast(packetReceivedFromPeer)
attr title "packets received: broadcast, sum(packetBytes)"
scalar QosShowcaseIPv6.ap.wlan[0].mac.dcf packetReceivedFromPeerWithRetry:count 0
attr interpolationmode none
attr recordingmode count
attr source ieee80211Retry(packetReceivedFromPeer)
attr title "packets received: with retry, count"
scalar QosShowcaseIPv6.ap.wlan[0].mac.dcf packetReceivedFromPeerWithRetry:sum(packetBytes) 0
attr interpolationmode none
attr recordingmode sum(packetBytes)
attr source ieee80211Retry(packetReceivedFromPeer)
attr title "packets received: with retry, sum(packetBytes)"
scalar QosShowcaseIPv6.ap.wlan[0].mac.dcf packetReceivedFromPeerWithoutRetry:count 0
attr interpolationmode none
attr recordingmode count
attr source ieee80211NotRetry(packetReceivedFromPeer)
attr title "packets received: without retry, count"
scalar QosShowcaseIPv6.ap.wlan[0].mac.dcf packetReceivedFromPeerWithoutRetry:sum(packetBytes) 0
attr interpolationmode none
attr recordingmode sum(packetBytes)
attr source ieee80211NotRetry(packetReceivedFromPeer)
attr title "packets received: without retry, sum(packetBytes)"
scalar QosShowcaseIPv6.ap.wlan[0].mac.dcf packetSentToPeer:count 0
attr interpolationmode none
attr recordingmode count
attr title "packets sent, count"
scalar QosShowcaseIPv6.ap.wlan[0].mac.dcf packetSentToPeer:sum(packetBytes) 0
attr interpolationmode none
attr recordingmode sum(packetBytes)
attr title "packets sent, sum(packetBytes)"
scalar QosShowcaseIPv6.ap.wlan[0].mac.dcf packetSentToPeerUnicast:count 0
attr interpolationmode none
attr recordingmode count
attr source ieee80211Unicast(packetSentToPeer)
attr title "packets sent: unicast, count"
scalar QosShowcaseIPv6.ap.wlan[0].mac.dcf packetSentToPeerUnicast:sum(packetBytes) 0
attr interpolationmode none
attr recordingmode sum(packetBytes)
attr source ieee80211Unicast(packetSentToPeer)
attr title "packets sent: unicast, sum(packetBytes)"
scalar QosShowcaseIPv6.ap.wlan[0].mac.dcf packetSentToPeerMulticast:count 0
attr interpolationmode none
attr recordingmode count
attr source ieee80211Multicast(packetSentToPeer)
attr title "packets sent: multicast, count"
scalar QosShowcaseIPv6.ap.wlan[0].mac.dcf packetSentToPeerMulticast:sum(packetBytes) 0
attr interpolationmode none
attr recordingmode sum(packetBytes)
attr source ieee80211Multicast(packetSentToPeer)
attr title "packets sent: multicast, sum(packetBytes)"
scalar QosShowcaseIPv6.ap.wlan[0].mac.dcf packetSentToPeerBroadcast:count 0
attr interpolationmode none
attr recordingmode count
attr source ieee80211Broadcast(packetSentToPeer)
attr title "packets sent: broadcast , count"
scalar QosShowcaseIPv6.ap.wlan[0].mac.dcf packetSentToPeerBroadcast:sum(packetBytes) 0
attr interpolationmode none
attr recordingmode sum(packetBytes)
attr source ieee80211Broadcast(packetSentToPeer)
attr title "packets sent: broadcast , sum(packetBytes)"
scalar QosShowcaseIPv6.ap.wlan[0].mac.dcf packetSentToPeerWithRetry:count 0
attr interpolationmode none
attr recordingmode count
attr source ieee80211Retry(packetSentToPeer)
attr title "packets sent: with retry, count"
scalar QosShowcaseIPv6.ap.wlan[0].mac.dcf packetSentToPeerWithRetry:sum(packetBytes) 0
attr interpolationmode none
attr recordingmode sum(packetBytes)
attr source ieee80211Retry(packetSentToPeer)
attr title "packets sent: with retry, sum(packetBytes)"
scalar QosShowcaseIPv6.ap.wlan[0].mac.dcf packetSentToPeerWithoutRetry:count 0
attr interpolationmode none
attr recordingmode count
attr source ieee80211NotRetry(packetSentToPeer)
attr title "packets sent: without retry, count"
scalar QosShowcaseIPv6.ap.wlan[0].mac.dcf packetSentToPeerWithoutRetry:sum(packetBytes) 0
attr interpolationmode none
attr recordingmode sum(packetBytes)
attr source ieee80211NotRetry(packetSentToPeer)
attr title "packets sent: without retry, sum(packetBytes)"
scalar QosShowcaseIPv6.ap.wlan[0].mac.dcf packetDrop:count 0
attr interpolationmode none
attr recordingmode count
attr source packetDropped
attr title "packet drops, count"
scalar QosShowcaseIPv6.ap.wlan[0].mac.dcf packetDrop:sum(packetBytes) 0
attr interpolationmode none
attr recordingmode sum(packetBytes)
attr source packetDropped
attr title "packet drops, sum(packetBytes)"
scalar QosShowcaseIPv6.ap.wlan[0].mac.dcf packetDropNotAddressedToUs:count 0
attr interpolationmode none
attr recordingmode count
attr source packetDropReasonIsNotAddressedToUs(packetDropped)
attr title "packet drops: not addressed to us, count"
scalar QosShowcaseIPv6.ap.wlan[0].mac.dcf packetDropNotAddressedToUs:sum(packetBytes) 0
attr interpolationmode none
attr recordingmode sum(packetBytes)
attr source packetDropReasonIsNotAddressedToUs(packetDropped)
attr title "packet drops: not addressed to us, sum(packetBytes)"
scalar QosShowcaseIPv6.ap.wlan[0].mac.dcf packetDropQueueOverflow:count 0
attr interpolationmode none
attr recordingmode count
attr source packetDropReasonIsQueueOverflow(packetDropped)
attr title "packet drops: queue overflow, count"
scalar QosShowcaseIPv6.ap.wlan[0].mac.dcf packetDropQueueOverflow:sum(packetBytes) 0
attr interpolationmode none
attr recordingmode sum(packetBytes)
attr source packetDropReasonIsQueueOverflow(packetDropped)
attr title "packet drops: queue overflow, sum(packetBytes)"
scalar QosShowcaseIPv6.ap.wlan[0].mac.dcf packetDropRetryLimitReached:count 0
attr interpolationmode none
attr recordingmode count
attr source packetDropReasonIsRetryLimitReached(packetDropped)
attr title "packet drops: retry limit reached, count"
scalar QosShowcaseIPv6.ap.wlan[0].mac.dcf packetDropRetryLimitReached:sum(packetBytes) 0
attr interpolationmode none
attr recordingmode sum(packetBytes)
attr source packetDropReasonIsRetryLimitReached(packetDropped)
attr title "packet drops: retry limit reached, sum(packetBytes)"
scalar QosShowcaseIPv6.ap.wlan[0].mac.dcf linkBroken:count 0
attr interpolationmode none
attr recordingmode count
attr title "link breaks, count"
scalar QosShowcaseIPv6.ap.wlan[0].mac.dcf frameSequenceFinished:count 0
attr recordingmode count
attr title "finished frame sequences, count"
statistic QosShowcaseIPv6.ap.wlan[0].mac.dcf frameSequenceDuration:histogram
field count 0
field mean nan
field stddev nan
field min nan
field max nan
field sum 0
field sqrsum 0
attr recordingmode histogram
attr source frameSequenceDuration(frameSequenceFinished)
attr title "frame sequence durations"
bin	-inf	0
bin	0	0
bin	1	0
statistic QosShowcaseIPv6.ap.wlan[0].mac.dcf frameSequenceNumPackets:histogram
field count 0
field mean nan
field stddev nan
field min nan
field max nan
field sum 0
field sqrsum 0
attr recordingmode histogram
attr source frameSequenceNumPackets(frameSequenceFinished)
attr title "frame sequences: number of packets"
bin	-inf	0
bin	0	0
bin	1	0
par QosShowcaseIPv6.ap.wlan[0].mac.hcf.edca.edcaf[0].pendingQueue typename "\"inet.linklayer.ieee80211.mac.queue.PendingQueue\""
par QosShowcaseIPv6.ap.wlan[0].mac.hcf.edca.edcaf[0].pendingQueue displayStringTextFormat "\"contains %p pk (%l) pushed %u\\npulled %o removed %r dropped %d\""
par QosShowcaseIPv6.ap.wlan[0].mac.hcf.edca.edcaf[0].pendingQueue packetCapacity 100
par QosShowcaseIPv6.ap.wlan[0].mac.hcf.edca.edcaf[0].pendingQueue dataCapacity -1b
attr unit b
par QosShowcaseIPv6.ap.wlan[0].mac.hcf.edca.edcaf[0].pendingQueue dropperClass "\"inet::queueing::PacketAtCollectionEndDropper\""
par QosShowcaseIPv6.ap.wlan[0].mac.hcf.edca.edcaf[0].pendingQueue comparatorClass "\"inet::ieee80211::MgmtOverDataComparator\""
par QosShowcaseIPv6.ap.wlan[0].mac.hcf.edca.edcaf[0].pendingQueue bufferModule "\"\""
scalar QosShowcaseIPv6.ap.wlan[0].mac.hcf.edca.edcaf[0].pendingQueue queueLength:last 0
attr autoWarmupFilter false
attr interpolationmode sample-hold
attr recordingmode last
attr source "warmup(atomic(constant0(packetPushEnded) + count(packetPushStarted) - count(packetPulled) - count(packetRemoved) - count(packetDropped)))"
attr title "queue length, last"
attr unit pk
scalar QosShowcaseIPv6.ap.wlan[0].mac.hcf.edca.edcaf[0].pendingQueue queueLength:max 0
attr autoWarmupFilter false
attr interpolationmode sample-hold
attr recordingmode max
attr source "warmup(atomic(constant0(packetPushEnded) + count(packetPushStarted) - count(packetPulled) - count(packetRemoved) - count(packetDropped)))"
attr title "queue length, max"
attr unit pk
scalar QosShowcaseIPv6.ap.wlan[0].mac.hcf.edca.edcaf[0].pendingQueue queueLength:timeavg 0
attr autoWarmupFilter false
attr interpolationmode sample-hold
attr recordingmode timeavg
attr source "warmup(atomic(constant0(packetPushEnded) + count(packetPushStarted) - count(packetPulled) - count(packetRemoved) - count(packetDropped)))"
attr title "queue length, timeavg"
attr unit pk
scalar QosShowcaseIPv6.ap.wlan[0].mac.hcf.edca.edcaf[0].pendingQueue queueBitLength:last 0
attr autoWarmupFilter false
attr interpolationmode sample-hold
attr recordingmode last
attr source "warmup(atomic(constant0(packetPushEnded) + sum(packetLength(packetPushStarted)) - sum(packetLength(packetPulled)) - sum(packetLength(packetRemoved)) - sum(packetLength(packetDropped))))"
attr title "queue bit length, last"
attr unit b
scalar QosShowcaseIPv6.ap.wlan[0].mac.hcf.edca.edcaf[0].pendingQueue queueBitLength:max 0
attr autoWarmupFilter false
attr interpolationmode sample-hold
attr recordingmode max
attr source "warmup(atomic(constant0(packetPushEnded) + sum(packetLength(packetPushStarted)) - sum(packetLength(packetPulled)) - sum(packetLength(packetRemoved)) - sum(packetLength(packetDropped))))"
attr title "queue bit length, max"
attr unit b
scalar QosShowcaseIPv6.ap.wlan[0].mac.hcf.edca.edcaf[0].pendingQueue queueBitLength:timeavg 0
attr autoWarmupFilter false
attr interpolationmode sample-hold
attr recordingmode timeavg
attr source "warmup(atomic(constant0(packetPushEnded) + sum(packetLength(packetPushStarted)) - sum(packetLength(packetPulled)) - sum(packetLength(packetRemoved)) - sum(packetLength(packetDropped))))"
attr title "queue bit length, timeavg"
attr unit b
statistic QosShowcaseIPv6.ap.wlan[0].mac.hcf.edca.edcaf[0].pendingQueue queueingTime:histogram
field count 0
field mean nan
field stddev nan
field min nan
field max nan
field sum 0
field sqrsum 0
attr interpolationmode none
attr recordingmode histogram
attr source queueingTime(packetPulled)
attr title "queueing times"
attr unit s
bin	-inf	0
bin	0	0
bin	1	0
scalar QosShowcaseIPv6.ap.wlan[0].mac.hcf.edca.edcaf[0].pendingQueue outgoingPackets:count 0
attr recordingmode count
attr source packetPulled
attr title "outgoing packets, count"
attr unit pk
scalar QosShowcaseIPv6.ap.wlan[0].mac.hcf.edca.edcaf[0].pendingQueue outgoingPacketLengths:sum 0
attr interpolationmode none
attr recordingmode sum
attr source packetLength(packetPulled)
attr title "outgoing packet lengths, sum"
attr unit b
statistic QosShowcaseIPv6.ap.wlan[0].mac.hcf.edca.edcaf[0].pendingQueue outgoingPacketLengths:histogram
field count 0
field mean nan
field stddev nan
field min nan
field max nan
field sum 0
field sqrsum 0
attr interpolationmode none
attr recordingmode histogram
attr source packetLength(packetPulled)
attr title "outgoing packet lengths"
attr unit b
bin	-inf	0
bin	0	0
bin	1	0
statistic QosShowcaseIPv6.ap.wlan[0].mac.hcf.edca.edcaf[0].pendingQueue flowQueueingTime:histogram
field count 0
field mean nan
field stddev nan
field min nan
field max nan
field sum 0
field sqrsum 0
attr interpolationmode none
attr recordingmode histogram
attr source queueingTime(demuxFlow(packetPulled))
attr title "flow queueing times"
attr unit s
bin	-inf	0
bin	0	0
bin	1	0
scalar QosShowcaseIPv6.ap.wlan[0].mac.hcf.edca.edcaf[0].pendingQueue incomingPackets:count 0
attr recordingmode count
attr source packetPushStarted
attr title "incoming packets, count"
attr unit pk
scalar QosShowcaseIPv6.ap.wlan[0].mac.hcf.edca.edcaf[0].pendingQueue incomingPacketLengths:sum 0
attr interpolationmode none
attr recordingmode sum
attr source packetLength(packetPushStarted)
attr title "incoming packet lengths, sum"
attr unit b
statistic QosShowcaseIPv6.ap.wlan[0].mac.hcf.edca.edcaf[0].pendingQueue incomingPacketLengths:histogram
field count 0
field mean nan
field stddev nan
field min nan
field max nan
field sum 0
field sqrsum 0
attr interpolationmode none
attr recordingmode histogram
attr source packetLength(packetPushStarted)
attr title "incoming packet lengths"
attr unit b
bin	-inf	0
bin	0	0
bin	1	0
scalar QosShowcaseIPv6.ap.wlan[0].mac.hcf.edca.edcaf[0].pendingQueue droppedPacketsQueueOverflow:count 0
attr interpolationmode none
attr recordingmode count
attr source packetDropReasonIsQueueOverflow(packetDropped)
attr title "dropped packets: queue overflow, count"
attr unit pk
scalar QosShowcaseIPv6.ap.wlan[0].mac.hcf.edca.edcaf[0].pendingQueue droppedPacketLengthsQueueOverflow:sum 0
attr interpolationmode none
attr recordingmode sum
attr source packetLength(packetDropReasonIsQueueOverflow(packetDropped))
attr title "dropped packet lengths: queue overflow, sum"
attr unit b
par QosShowcaseIPv6.ap.wlan[0].mac.hcf.edca.edcaf[0].inProgressFrames typename "\"inet.linklayer.ieee80211.mac.queue.InProgressFrames\""
par QosShowcaseIPv6.ap.wlan[0].mac.hcf.edca.edcaf[0].inProgressFrames pendingQueueModule "\"^.pendingQueue\""
par QosShowcaseIPv6.ap.wlan[0].mac.hcf.edca.edcaf[0].inProgressFrames originatorMacDataServiceModule "\"^.^.^.originatorMacDataService\""
par QosShowcaseIPv6.ap.wlan[0].mac.hcf.edca.edcaf[0].inProgressFrames ackHandlerModule "\"^.ackHandler\""
statistic QosShowcaseIPv6.ap.wlan[0].mac.hcf.edca.edcaf[0].inProgressFrames queueingTime:histogram
field count 0
field mean nan
field stddev nan
field min nan
field max nan
field sum 0
field sqrsum 0
attr interpolationmode none
attr recordingmode histogram
attr source queueingTime(packetDequeued)
attr title "queueing times"
bin	-inf	0
bin	0	0
bin	1	0
scalar QosShowcaseIPv6.ap.wlan[0].mac.hcf.edca.edcaf[0].inProgressFrames queueLength:max 0
attr autoWarmupFilter false
attr interpolationmode sample-hold
attr recordingmode max
attr source "warmup(count(packetEnqueued) - count(packetDequeued))"
attr title "queue length, max"
scalar QosShowcaseIPv6.ap.wlan[0].mac.hcf.edca.edcaf[0].inProgressFrames queueLength:timeavg 0
attr autoWarmupFilter false
attr interpolationmode sample-hold
attr recordingmode timeavg
attr source "warmup(count(packetEnqueued) - count(packetDequeued))"
attr title "queue length, timeavg"
par QosShowcaseIPv6.ap.wlan[0].mac.hcf.edca.edcaf[0].contention typename "\"inet.linklayer.ieee80211.mac.contention.Contention\""
par QosShowcaseIPv6.ap.wlan[0].mac.hcf.edca.edcaf[0].contention initialChannelBusy true
par QosShowcaseIPv6.ap.wlan[0].mac.hcf.edca.edcaf[0].contention backoffOptimization true
scalar QosShowcaseIPv6.ap.wlan[0].mac.hcf.edca.edcaf[0].contention channelAccessGranted:count 0
attr recordingmode count
attr title "channel access granted, count"
scalar QosShowcaseIPv6.ap.wlan[0].mac.hcf.edca.edcaf[0].contention stateChanged:count 250
attr enum IDLE,DEFER,IFS_AND_BACKOFF
attr interpolationmode none
attr recordingmode count
attr title "contention state changed, count"
attr type enum
par QosShowcaseIPv6.ap.wlan[0].mac.hcf.edca.edcaf[0].ackHandler typename "\"inet.linklayer.ieee80211.mac.originator.QosAckHandler\""
par QosShowcaseIPv6.ap.wlan[0].mac.hcf.edca.edcaf[0].txopProcedure typename "\"inet.linklayer.ieee80211.mac.originator.TxopProcedure\""
par QosShowcaseIPv6.ap.wlan[0].mac.hcf.edca.edcaf[0].txopProcedure txopLimit -1s
attr unit s
scalar QosShowcaseIPv6.ap.wlan[0].mac.hcf.edca.edcaf[0].txopProcedure txopEnded:count 0
attr interpolationmode none
attr recordingmode count
attr source txopEnded
attr title "txops ended, count"
statistic QosShowcaseIPv6.ap.wlan[0].mac.hcf.edca.edcaf[0].txopProcedure txopDuration:histogram
field count 0
field mean nan
field stddev nan
field min nan
field max nan
field sum 0
field sqrsum 0
attr interpolationmode none
attr recordingmode histogram
attr source txopDuration(txopEnded)
attr title "txop duration"
bin	-inf	0
bin	0	0
bin	1	0
par QosShowcaseIPv6.ap.wlan[0].mac.hcf.edca.edcaf[0].recoveryProcedure typename "\"inet.linklayer.ieee80211.mac.originator.QosRecoveryProcedure\""
par QosShowcaseIPv6.ap.wlan[0].mac.hcf.edca.edcaf[0].recoveryProcedure cwCalculatorModule "\"^\""
par QosShowcaseIPv6.ap.wlan[0].mac.hcf.edca.edcaf[0].recoveryProcedure rtsPolicyModule "\"^.^.^.rtsPolicy\""
par QosShowcaseIPv6.ap.wlan[0].mac.hcf.edca.edcaf[0].recoveryProcedure shortRetryLimit 7
par QosShowcaseIPv6.ap.wlan[0].mac.hcf.edca.edcaf[0].recoveryProcedure longRetryLimit 4
scalar QosShowcaseIPv6.ap.wlan[0].mac.hcf.edca.edcaf[0].recoveryProcedure retryLimitReached:count 0
attr recordingmode count
attr title "retry limit reached, count"
par QosShowcaseIPv6.ap.wlan[0].mac.hcf.edca.edcaf[0] typename "\"inet.linklayer.ieee80211.mac.channelaccess.Edcaf\""
par QosShowcaseIPv6.ap.wlan[0].mac.hcf.edca.edcaf[0] rxModule "\"^.^.^.rx\""
par QosShowcaseIPv6.ap.wlan[0].mac.hcf.edca.edcaf[0] collisionControllerModule "\"^.collisionController\""
par QosShowcaseIPv6.ap.wlan[0].mac.hcf.edca.edcaf[0] originatorMacDataServiceModule "\"^.^.originatorMacDataService\""
par QosShowcaseIPv6.ap.wlan[0].mac.hcf.edca.edcaf[0] accessCategory "\"AC_BK\""
attr enum AC_BK,AC_BE,AC_VI,AC_VO
par QosShowcaseIPv6.ap.wlan[0].mac.hcf.edca.edcaf[0] aifsn -1
par QosShowcaseIPv6.ap.wlan[0].mac.hcf.edca.edcaf[0] cwMin -1
par QosShowcaseIPv6.ap.wlan[0].mac.hcf.edca.edcaf[0] cwMax -1
scalar QosShowcaseIPv6.ap.wlan[0].mac.hcf.edca.edcaf[0] packetSentToPeer:count 0
attr interpolationmode none
attr recordingmode count
attr title "packets sent, count"
scalar QosShowcaseIPv6.ap.wlan[0].mac.hcf.edca.edcaf[0] packetSentToPeer:sum(packetBytes) 0
attr interpolationmode none
attr recordingmode sum(packetBytes)
attr title "packets sent, sum(packetBytes)"
scalar QosShowcaseIPv6.ap.wlan[0].mac.hcf.edca.edcaf[0] packetSentToPeerUnicast:count 0
attr interpolationmode none
attr recordingmode count
attr source ieee80211Unicast(packetSentToPeer)
attr title "packets sent: unicast, count"
scalar QosShowcaseIPv6.ap.wlan[0].mac.hcf.edca.edcaf[0] packetSentToPeerUnicast:sum(packetBytes) 0
attr interpolationmode none
attr recordingmode sum(packetBytes)
attr source ieee80211Unicast(packetSentToPeer)
attr title "packets sent: unicast, sum(packetBytes)"
scalar QosShowcaseIPv6.ap.wlan[0].mac.hcf.edca.edcaf[0] packetSentToPeerMulticast:count 0
attr interpolationmode none
attr recordingmode count
attr source ieee80211Multicast(packetSentToPeer)
attr title "packets sent: multicast, count"
scalar QosShowcaseIPv6.ap.wlan[0].mac.hcf.edca.edcaf[0] packetSentToPeerMulticast:sum(packetBytes) 0
attr interpolationmode none
attr recordingmode sum(packetBytes)
attr source ieee80211Multicast(packetSentToPeer)
attr title "packets sent: multicast, sum(packetBytes)"
scalar QosShowcaseIPv6.ap.wlan[0].mac.hcf.edca.edcaf[0] packetSentToPeerBroadcast:count 0
attr interpolationmode none
attr recordingmode count
attr source ieee80211Broadcast(packetSentToPeer)
attr title "packets sent: broadcast , count"
scalar QosShowcaseIPv6.ap.wlan[0].mac.hcf.edca.edcaf[0] packetSentToPeerBroadcast:sum(packetBytes) 0
attr interpolationmode none
attr recordingmode sum(packetBytes)
attr source ieee80211Broadcast(packetSentToPeer)
attr title "packets sent: broadcast , sum(packetBytes)"
scalar QosShowcaseIPv6.ap.wlan[0].mac.hcf.edca.edcaf[0] packetSentToPeerWithRetry:count 0
attr interpolationmode none
attr recordingmode count
attr source ieee80211Retry(packetSentToPeer)
attr title "packets sent: with retry, count"
scalar QosShowcaseIPv6.ap.wlan[0].mac.hcf.edca.edcaf[0] packetSentToPeerWithRetry:sum(packetBytes) 0
attr interpolationmode none
attr recordingmode sum(packetBytes)
attr source ieee80211Retry(packetSentToPeer)
attr title "packets sent: with retry, sum(packetBytes)"
scalar QosShowcaseIPv6.ap.wlan[0].mac.hcf.edca.edcaf[0] packetSentToPeerWithoutRetry:count 0
attr interpolationmode none
attr recordingmode count
attr source ieee80211NotRetry(packetSentToPeer)
attr title "packets sent: without retry, count"
scalar QosShowcaseIPv6.ap.wlan[0].mac.hcf.edca.edcaf[0] packetSentToPeerWithoutRetry:sum(packetBytes) 0
attr interpolationmode none
attr recordingmode sum(packetBytes)
attr source ieee80211NotRetry(packetSentToPeer)
attr title "packets sent: without retry, sum(packetBytes)"
scalar QosShowcaseIPv6.ap.wlan[0].mac.hcf.edca.edcaf[0] channelOwnershipChanged:count 0
attr interpolationmode sample-hold
attr recordingmode count
attr title "channel ownership, count"
par QosShowcaseIPv6.ap.wlan[0].mac.hcf.edca.edcaf[1].pendingQueue typename "\"inet.linklayer.ieee80211.mac.queue.PendingQueue\""
par QosShowcaseIPv6.ap.wlan[0].mac.hcf.edca.edcaf[1].pendingQueue displayStringTextFormat "\"contains %p pk (%l) pushed %u\\npulled %o removed %r dropped %d\""
par QosShowcaseIPv6.ap.wlan[0].mac.hcf.edca.edcaf[1].pendingQueue packetCapacity 100
par QosShowcaseIPv6.ap.wlan[0].mac.hcf.edca.edcaf[1].pendingQueue dataCapacity -1b
attr unit b
par QosShowcaseIPv6.ap.wlan[0].mac.hcf.edca.edcaf[1].pendingQueue dropperClass "\"inet::queueing::PacketAtCollectionEndDropper\""
par QosShowcaseIPv6.ap.wlan[0].mac.hcf.edca.edcaf[1].pendingQueue comparatorClass "\"inet::ieee80211::MgmtOverDataComparator\""
par QosShowcaseIPv6.ap.wlan[0].mac.hcf.edca.edcaf[1].pendingQueue bufferModule "\"\""
scalar QosShowcaseIPv6.ap.wlan[0].mac.hcf.edca.edcaf[1].pendingQueue queueLength:last 0
attr autoWarmupFilter false
attr interpolationmode sample-hold
attr recordingmode last
attr source "warmup(atomic(constant0(packetPushEnded) + count(packetPushStarted) - count(packetPulled) - count(packetRemoved) - count(packetDropped)))"
attr title "queue length, last"
attr unit pk
scalar QosShowcaseIPv6.ap.wlan[0].mac.hcf.edca.edcaf[1].pendingQueue queueLength:max 1
attr autoWarmupFilter false
attr interpolationmode sample-hold
attr recordingmode max
attr source "warmup(atomic(constant0(packetPushEnded) + count(packetPushStarted) - count(packetPulled) - count(packetRemoved) - count(packetDropped)))"
attr title "queue length, max"
attr unit pk
scalar QosShowcaseIPv6.ap.wlan[0].mac.hcf.edca.edcaf[1].pendingQueue queueLength:timeavg 0.001490521486956
attr autoWarmupFilter false
attr interpolationmode sample-hold
attr recordingmode timeavg
attr source "warmup(atomic(constant0(packetPushEnded) + count(packetPushStarted) - count(packetPulled) - count(packetRemoved) - count(packetDropped)))"
attr title "queue length, timeavg"
attr unit pk
scalar QosShowcaseIPv6.ap.wlan[0].mac.hcf.edca.edcaf[1].pendingQueue queueBitLength:last 0
attr autoWarmupFilter false
attr interpolationmode sample-hold
attr recordingmode last
attr source "warmup(atomic(constant0(packetPushEnded) + sum(packetLength(packetPushStarted)) - sum(packetLength(packetPulled)) - sum(packetLength(packetRemoved)) - sum(packetLength(packetDropped))))"
attr title "queue bit length, last"
attr unit b
scalar QosShowcaseIPv6.ap.wlan[0].mac.hcf.edca.edcaf[1].pendingQueue queueBitLength:max 880
attr autoWarmupFilter false
attr interpolationmode sample-hold
attr recordingmode max
attr source "warmup(atomic(constant0(packetPushEnded) + sum(packetLength(packetPushStarted)) - sum(packetLength(packetPulled)) - sum(packetLength(packetRemoved)) - sum(packetLength(packetDropped))))"
attr title "queue bit length, max"
attr unit b
scalar QosShowcaseIPv6.ap.wlan[0].mac.hcf.edca.edcaf[1].pendingQueue queueBitLength:timeavg 1.2568013241435
attr autoWarmupFilter false
attr interpolationmode sample-hold
attr recordingmode timeavg
attr source "warmup(atomic(constant0(packetPushEnded) + sum(packetLength(packetPushStarted)) - sum(packetLength(packetPulled)) - sum(packetLength(packetRemoved)) - sum(packetLength(packetDropped))))"
attr title "queue bit length, timeavg"
attr unit b
statistic QosShowcaseIPv6.ap.wlan[0].mac.hcf.edca.edcaf[1].pendingQueue queueingTime:histogram
field count 6
field mean 1.377765783587
field stddev 0.65325012552802
field min 0.635827347629
field max 2.001937415193
field sum 8.266594701522
field sqrsum 13.52310995905
attr interpolationmode none
attr recordingmode histogram
attr source queueingTime(packetPulled)
attr title "queueing times"
attr unit s
bin	-inf	0
bin	0.28	0
bin	0.3	0
bin	0.32	0
bin	0.34	0
bin	0.36	0
bin	0.38	0
bin	0.4	0
bin	0.42	0
bin	0.44	0
bin	0.46	0
bin	0.48	0
bin	0.5	0
bin	0.52	0
bin	0.54	0
bin	0.56	0
bin	0.58	0
bin	0.6	0
bin	0.62	1
bin	0.64	0
bin	0.66	0
bin	0.68	0
bin	0.7	0
bin	0.72	0
bin	0.74	1
bin	0.76	0
bin	0.78	0
bin	0.8	0
bin	0.82	0
bin	0.84	0
bin	0.86	0
bin	0.88	0
bin	0.9	0
bin	0.92	0
bin	0.94	0
bin	0.96	0
bin	0.98	0
bin	1	1
bin	1.02	0
bin	1.04	0
bin	1.06	0
bin	1.08	0
bin	1.1	0
bin	1.12	0
bin	1.14	0
bin	1.16	0
bin	1.18	0
bin	1.2	0
bin	1.22	0
bin	1.24	0
bin	1.26	0
bin	1.28	0
bin	1.3	0
bin	1.32	0
bin	1.34	0
bin	1.36	0
bin	1.38	0
bin	1.4	0
bin	1.42	0
bin	1.44	0
bin	1.46	0
bin	1.48	0
bin	1.5	0
bin	1.52	0
bin	1.54	0
bin	1.56	0
bin	1.58	0
bin	1.6	0
bin	1.62	0
bin	1.64	0
bin	1.66	0
bin	1.68	0
bin	1.7	0
bin	1.72	0
bin	1.74	0
bin	1.76	0
bin	1.78	0
bin	1.8	0
bin	1.82	0
bin	1.84	0
bin	1.86	0
bin	1.88	1
bin	1.9	0
bin	1.92	0
bin	1.94	0
bin	1.96	0
bin	1.98	0
bin	2	2
bin	2.02	0
bin	2.04	0
bin	2.06	0
bin	2.08	0
bin	2.1	0
bin	2.12	0
bin	2.14	0
bin	2.16	0
bin	2.18	0
bin	2.2	0
bin	2.22	0
bin	2.24	0
bin	2.26	0
bin	2.28	0
bin	2.3	0
bin	2.32	0
bin	2.34	0
bin	2.36	0
scalar QosShowcaseIPv6.ap.wlan[0].mac.hcf.edca.edcaf[1].pendingQueue outgoingPackets:count 6
attr recordingmode count
attr source packetPulled
attr title "outgoing packets, count"
attr unit pk
scalar QosShowcaseIPv6.ap.wlan[0].mac.hcf.edca.edcaf[1].pendingQueue outgoingPacketLengths:sum 5024
attr interpolationmode none
attr recordingmode sum
attr source packetLength(packetPulled)
attr title "outgoing packet lengths, sum"
attr unit b
statistic QosShowcaseIPv6.ap.wlan[0].mac.hcf.edca.edcaf[1].pendingQueue outgoingPacketLengths:histogram
field count 6
field mean 837.33333333333
field stddev 52.255781179374
field min 752
field max 880
field sum 5024
field sqrsum 4220416
attr interpolationmode none
attr recordingmode histogram
attr source packetLength(packetPulled)
attr title "outgoing packet lengths"
attr unit b
bin	-inf	0
bin	720	0
bin	722	0
bin	724	0
bin	726	0
bin	728	0
bin	730	0
bin	732	0
bin	734	0
bin	736	0
bin	738	0
bin	740	0
bin	742	0
bin	744	0
bin	746	0
bin	748	0
bin	750	0
bin	752	1
bin	754	0
bin	756	0
bin	758	0
bin	760	0
bin	762	0
bin	764	0
bin	766	0
bin	768	0
bin	770	0
bin	772	0
bin	774	0
bin	776	0
bin	778	0
bin	780	0
bin	782	0
bin	784	0
bin	786	0
bin	788	0
bin	790	0
bin	792	0
bin	794	0
bin	796	0
bin	798	0
bin	800	0
bin	802	0
bin	804	0
bin	806	0
bin	808	0
bin	810	0
bin	812	0
bin	814	0
bin	816	2
bin	818	0
bin	820	0
bin	822	0
bin	824	0
bin	826	0
bin	828	0
bin	830	0
bin	832	0
bin	834	0
bin	836	0
bin	838	0
bin	840	0
bin	842	0
bin	844	0
bin	846	0
bin	848	0
bin	850	0
bin	852	0
bin	854	0
bin	856	0
bin	858	0
bin	860	0
bin	862	0
bin	864	0
bin	866	0
bin	868	0
bin	870	0
bin	872	0
bin	874	0
bin	876	0
bin	878	0
bin	880	3
bin	882	0
bin	884	0
bin	886	0
bin	888	0
bin	890	0
bin	892	0
bin	894	0
bin	896	0
bin	898	0
bin	900	0
bin	902	0
bin	904	0
bin	906	0
bin	908	0
bin	910	0
bin	912	0
statistic QosShowcaseIPv6.ap.wlan[0].mac.hcf.edca.edcaf[1].pendingQueue flowQueueingTime:histogram
field count 0
field mean nan
field stddev nan
field min nan
field max nan
field sum 0
field sqrsum 0
attr interpolationmode none
attr recordingmode histogram
attr source queueingTime(demuxFlow(packetPulled))
attr title "flow queueing times"
attr unit s
bin	-inf	0
bin	0	0
bin	1	0
scalar QosShowcaseIPv6.ap.wlan[0].mac.hcf.edca.edcaf[1].pendingQueue incomingPackets:count 6
attr recordingmode count
attr source packetPushStarted
attr title "incoming packets, count"
attr unit pk
scalar QosShowcaseIPv6.ap.wlan[0].mac.hcf.edca.edcaf[1].pendingQueue incomingPacketLengths:sum 5024
attr interpolationmode none
attr recordingmode sum
attr source packetLength(packetPushStarted)
attr title "incoming packet lengths, sum"
attr unit b
statistic QosShowcaseIPv6.ap.wlan[0].mac.hcf.edca.edcaf[1].pendingQueue incomingPacketLengths:histogram
field count 6
field mean 837.33333333333
field stddev 52.255781179374
field min 752
field max 880
field sum 5024
field sqrsum 4220416
attr interpolationmode none
attr recordingmode histogram
attr source packetLength(packetPushStarted)
attr title "incoming packet lengths"
attr unit b
bin	-inf	0
bin	720	0
bin	722	0
bin	724	0
bin	726	0
bin	728	0
bin	730	0
bin	732	0
bin	734	0
bin	736	0
bin	738	0
bin	740	0
bin	742	0
bin	744	0
bin	746	0
bin	748	0
bin	750	0
bin	752	1
bin	754	0
bin	756	0
bin	758	0
bin	760	0
bin	762	0
bin	764	0
bin	766	0
bin	768	0
bin	770	0
bin	772	0
bin	774	0
bin	776	0
bin	778	0
bin	780	0
bin	782	0
bin	784	0
bin	786	0
bin	788	0
bin	790	0
bin	792	0
bin	794	0
bin	796	0
bin	798	0
bin	800	0
bin	802	0
bin	804	0
bin	806	0
bin	808	0
bin	810	0
bin	812	0
bin	814	0
bin	816	2
bin	818	0
bin	820	0
bin	822	0
bin	824	0
bin	826	0
bin	828	0
bin	830	0
bin	832	0
bin	834	0
bin	836	0
bin	838	0
bin	840	0
bin	842	0
bin	844	0
bin	846	0
bin	848	0
bin	850	0
bin	852	0
bin	854	0
bin	856	0
bin	858	0
bin	860	0
bin	862	0
bin	864	0
bin	866	0
bin	868	0
bin	870	0
bin	872	0
bin	874	0
bin	876	0
bin	878	0
bin	880	3
bin	882	0
bin	884	0
bin	886	0
bin	888	0
bin	890	0
bin	892	0
bin	894	0
bin	896	0
bin	898	0
bin	900	0
bin	902	0
bin	904	0
bin	906	0
bin	908	0
bin	910	0
bin	912	0
scalar QosShowcaseIPv6.ap.wlan[0].mac.hcf.edca.edcaf[1].pendingQueue droppedPacketsQueueOverflow:count 0
attr interpolationmode none
attr recordingmode count
attr source packetDropReasonIsQueueOverflow(packetDropped)
attr title "dropped packets: queue overflow, count"
attr unit pk
scalar QosShowcaseIPv6.ap.wlan[0].mac.hcf.edca.edcaf[1].pendingQueue droppedPacketLengthsQueueOverflow:sum 0
attr interpolationmode none
attr recordingmode sum
attr source packetLength(packetDropReasonIsQueueOverflow(packetDropped))
attr title "dropped packet lengths: queue overflow, sum"
attr unit b
par QosShowcaseIPv6.ap.wlan[0].mac.hcf.edca.edcaf[1].inProgressFrames typename "\"inet.linklayer.ieee80211.mac.queue.InProgressFrames\""
par QosShowcaseIPv6.ap.wlan[0].mac.hcf.edca.edcaf[1].inProgressFrames pendingQueueModule "\"^.pendingQueue\""
par QosShowcaseIPv6.ap.wlan[0].mac.hcf.edca.edcaf[1].inProgressFrames originatorMacDataServiceModule "\"^.^.^.originatorMacDataService\""
par QosShowcaseIPv6.ap.wlan[0].mac.hcf.edca.edcaf[1].inProgressFrames ackHandlerModule "\"^.ackHandler\""
statistic QosShowcaseIPv6.ap.wlan[0].mac.hcf.edca.edcaf[1].inProgressFrames queueingTime:histogram
field count 6
field mean 4.4e-05
field stddev 2.1908902300208e-06
field min 4.2e-05
field max 4.6e-05
field sum 0.000264
field sqrsum 1.164e-08
attr interpolationmode none
attr recordingmode histogram
attr source queueingTime(packetDequeued)
attr title "queueing times"
bin	-inf	0
bin	4.09e-05	0
bin	4.1e-05	0
bin	4.11e-05	0
bin	4.12e-05	0
bin	4.13e-05	0
bin	4.14e-05	0
bin	4.15e-05	0
bin	4.16e-05	0
bin	4.17e-05	0
bin	4.18e-05	0
bin	4.19e-05	3
bin	4.2e-05	0
bin	4.21e-05	0
bin	4.22e-05	0
bin	4.23e-05	0
bin	4.24e-05	0
bin	4.25e-05	0
bin	4.26e-05	0
bin	4.27e-05	0
bin	4.28e-05	0
bin	4.29e-05	0
bin	4.3e-05	0
bin	4.31e-05	0
bin	4.32e-05	0
bin	4.33e-05	0
bin	4.34e-05	0
bin	4.35e-05	0
bin	4.36e-05	0
bin	4.37e-05	0
bin	4.38e-05	0
bin	4.39e-05	0
bin	4.4e-05	0
bin	4.41e-05	0
bin	4.42e-05	0
bin	4.43e-05	0
bin	4.44e-05	0
bin	4.45e-05	0
bin	4.46e-05	0
bin	4.47e-05	0
bin	4.48e-05	0
bin	4.49e-05	0
bin	4.5e-05	0
bin	4.51e-05	0
bin	4.52e-05	0
bin	4.53e-05	0
bin	4.54e-05	0
bin	4.55e-05	0
bin	4.56e-05	0
bin	4.57e-05	0
bin	4.58e-05	0
bin	4.59e-05	3
bin	4.6e-05	0
bin	4.61e-05	0
bin	4.62e-05	0
bin	4.63e-05	0
bin	4.64e-05	0
bin	4.65e-05	0
bin	4.66e-05	0
bin	4.67e-05	0
bin	4.68e-05	0
bin	4.69e-05	0
bin	4.7e-05	0
scalar QosShowcaseIPv6.ap.wlan[0].mac.hcf.edca.edcaf[1].inProgressFrames queueLength:max 1
attr autoWarmupFilter false
attr interpolationmode sample-hold
attr recordingmode max
attr source "warmup(count(packetEnqueued) - count(packetDequeued))"
attr title "queue length, max"
scalar QosShowcaseIPv6.ap.wlan[0].mac.hcf.edca.edcaf[1].inProgressFrames queueLength:timeavg 0.00013186919321595
attr autoWarmupFilter false
attr interpolationmode sample-hold
attr recordingmode timeavg
attr source "warmup(count(packetEnqueued) - count(packetDequeued))"
attr title "queue length, timeavg"
par QosShowcaseIPv6.ap.wlan[0].mac.hcf.edca.edcaf[1].contention typename "\"inet.linklayer.ieee80211.mac.contention.Contention\""
par QosShowcaseIPv6.ap.wlan[0].mac.hcf.edca.edcaf[1].contention initialChannelBusy true
par QosShowcaseIPv6.ap.wlan[0].mac.hcf.edca.edcaf[1].contention backoffOptimization true
scalar QosShowcaseIPv6.ap.wlan[0].mac.hcf.edca.edcaf[1].contention channelAccessGranted:count 6
attr recordingmode count
attr title "channel access granted, count"
scalar QosShowcaseIPv6.ap.wlan[0].mac.hcf.edca.edcaf[1].contention stateChanged:count 274
attr enum IDLE,DEFER,IFS_AND_BACKOFF
attr interpolationmode none
attr recordingmode count
attr title "contention state changed, count"
attr type enum
par QosShowcaseIPv6.ap.wlan[0].mac.hcf.edca.edcaf[1].ackHandler typename "\"inet.linklayer.ieee80211.mac.originator.QosAckHandler\""
par QosShowcaseIPv6.ap.wlan[0].mac.hcf.edca.edcaf[1].txopProcedure typename "\"inet.linklayer.ieee80211.mac.originator.TxopProcedure\""
par QosShowcaseIPv6.ap.wlan[0].mac.hcf.edca.edcaf[1].txopProcedure txopLimit -1s
attr unit s
scalar QosShowcaseIPv6.ap.wlan[0].mac.hcf.edca.edcaf[1].txopProcedure txopEnded:count 6
attr interpolationmode none
attr recordingmode count
attr source txopEnded
attr title "txops ended, count"
statistic QosShowcaseIPv6.ap.wlan[0].mac.hcf.edca.edcaf[1].txopProcedure txopDuration:histogram
field count 6
field mean 4.4e-05
field stddev 2.1908902300208e-06
field min 4.2e-05
field max 4.6e-05
field sum 0.000264
field sqrsum 1.164e-08
attr interpolationmode none
attr recordingmode histogram
attr source txopDuration(txopEnded)
attr title "txop duration"
bin	-inf	0
bin	4.09e-05	0
bin	4.1e-05	0
bin	4.11e-05	0
bin	4.12e-05	0
bin	4.13e-05	0
bin	4.14e-05	0
bin	4.15e-05	0
bin	4.16e-05	0
bin	4.17e-05	0
bin	4.18e-05	0
bin	4.19e-05	3
bin	4.2e-05	0
bin	4.21e-05	0
bin	4.22e-05	0
bin	4.23e-05	0
bin	4.24e-05	0
bin	4.25e-05	0
bin	4.26e-05	0
bin	4.27e-05	0
bin	4.28e-05	0
bin	4.29e-05	0
bin	4.3e-05	0
bin	4.31e-05	0
bin	4.32e-05	0
bin	4.33e-05	0
bin	4.34e-05	0
bin	4.35e-05	0
bin	4.36e-05	0
bin	4.37e-05	0
bin	4.38e-05	0
bin	4.39e-05	0
bin	4.4e-05	0
bin	4.41e-05	0
bin	4.42e-05	0
bin	4.43e-05	0
bin	4.44e-05	0
bin	4.45e-05	0
bin	4.46e-05	0
bin	4.47e-05	0
bin	4.48e-05	0
bin	4.49e-05	0
bin	4.5e-05	0
bin	4.51e-05	0
bin	4.52e-05	0
bin	4.53e-05	0
bin	4.54e-05	0
bin	4.55e-05	0
bin	4.56e-05	0
bin	4.57e-05	0
bin	4.58e-05	0
bin	4.59e-05	3
bin	4.6e-05	0
bin	4.61e-05	0
bin	4.62e-05	0
bin	4.63e-05	0
bin	4.64e-05	0
bin	4.65e-05	0
bin	4.66e-05	0
bin	4.67e-05	0
bin	4.68e-05	0
bin	4.69e-05	0
bin	4.7e-05	0
par QosShowcaseIPv6.ap.wlan[0].mac.hcf.edca.edcaf[1].recoveryProcedure typename "\"inet.linklayer.ieee80211.mac.originator.QosRecoveryProcedure\""
par QosShowcaseIPv6.ap.wlan[0].mac.hcf.edca.edcaf[1].recoveryProcedure cwCalculatorModule "\"^\""
par QosShowcaseIPv6.ap.wlan[0].mac.hcf.edca.edcaf[1].recoveryProcedure rtsPolicyModule "\"^.^.^.rtsPolicy\""
par QosShowcaseIPv6.ap.wlan[0].mac.hcf.edca.edcaf[1].recoveryProcedure shortRetryLimit 7
par QosShowcaseIPv6.ap.wlan[0].mac.hcf.edca.edcaf[1].recoveryProcedure longRetryLimit 4
scalar QosShowcaseIPv6.ap.wlan[0].mac.hcf.edca.edcaf[1].recoveryProcedure retryLimitReached:count 0
attr recordingmode count
attr title "retry limit reached, count"
par QosShowcaseIPv6.ap.wlan[0].mac.hcf.edca.edcaf[1] typename "\"inet.linklayer.ieee80211.mac.channelaccess.Edcaf\""
par QosShowcaseIPv6.ap.wlan[0].mac.hcf.edca.edcaf[1] rxModule "\"^.^.^.rx\""
par QosShowcaseIPv6.ap.wlan[0].mac.hcf.edca.edcaf[1] collisionControllerModule "\"^.collisionController\""
par QosShowcaseIPv6.ap.wlan[0].mac.hcf.edca.edcaf[1] originatorMacDataServiceModule "\"^.^.originatorMacDataService\""
par QosShowcaseIPv6.ap.wlan[0].mac.hcf.edca.edcaf[1] accessCategory "\"AC_BE\""
attr enum AC_BK,AC_BE,AC_VI,AC_VO
par QosShowcaseIPv6.ap.wlan[0].mac.hcf.edca.edcaf[1] aifsn -1
par QosShowcaseIPv6.ap.wlan[0].mac.hcf.edca.edcaf[1] cwMin -1
par QosShowcaseIPv6.ap.wlan[0].mac.hcf.edca.edcaf[1] cwMax -1
scalar QosShowcaseIPv6.ap.wlan[0].mac.hcf.edca.edcaf[1] packetSentToPeer:count 6
attr interpolationmode none
attr recordingmode count
attr title "packets sent, count"
scalar QosShowcaseIPv6.ap.wlan[0].mac.hcf.edca.edcaf[1] packetSentToPeer:sum(packetBytes) 628
attr interpolationmode none
attr recordingmode sum(packetBytes)
attr title "packets sent, sum(packetBytes)"
scalar QosShowcaseIPv6.ap.wlan[0].mac.hcf.edca.edcaf[1] packetSentToPeerUnicast:count 0
attr interpolationmode none
attr recordingmode count
attr source ieee80211Unicast(packetSentToPeer)
attr title "packets sent: unicast, count"
scalar QosShowcaseIPv6.ap.wlan[0].mac.hcf.edca.edcaf[1] packetSentToPeerUnicast:sum(packetBytes) 0
attr interpolationmode none
attr recordingmode sum(packetBytes)
attr source ieee80211Unicast(packetSentToPeer)
attr title "packets sent: unicast, sum(packetBytes)"
scalar QosShowcaseIPv6.ap.wlan[0].mac.hcf.edca.edcaf[1] packetSentToPeerMulticast:count 6
attr interpolationmode none
attr recordingmode count
attr source ieee80211Multicast(packetSentToPeer)
attr title "packets sent: multicast, count"
scalar QosShowcaseIPv6.ap.wlan[0].mac.hcf.edca.edcaf[1] packetSentToPeerMulticast:sum(packetBytes) 628
attr interpolationmode none
attr recordingmode sum(packetBytes)
attr source ieee80211Multicast(packetSentToPeer)
attr title "packets sent: multicast, sum(packetBytes)"
scalar QosShowcaseIPv6.ap.wlan[0].mac.hcf.edca.edcaf[1] packetSentToPeerBroadcast:count 6
attr interpolationmode none
attr recordingmode count
attr source ieee80211Broadcast(packetSentToPeer)
attr title "packets sent: broadcast , count"
scalar QosShowcaseIPv6.ap.wlan[0].mac.hcf.edca.edcaf[1] packetSentToPeerBroadcast:sum(packetBytes) 628
attr interpolationmode none
attr recordingmode sum(packetBytes)
attr source ieee80211Broadcast(packetSentToPeer)
attr title "packets sent: broadcast , sum(packetBytes)"
scalar QosShowcaseIPv6.ap.wlan[0].mac.hcf.edca.edcaf[1] packetSentToPeerWithRetry:count 0
attr interpolationmode none
attr recordingmode count
attr source ieee80211Retry(packetSentToPeer)
attr title "packets sent: with retry, count"
scalar QosShowcaseIPv6.ap.wlan[0].mac.hcf.edca.edcaf[1] packetSentToPeerWithRetry:sum(packetBytes) 0
attr interpolationmode none
attr recordingmode sum(packetBytes)
attr source ieee80211Retry(packetSentToPeer)
attr title "packets sent: with retry, sum(packetBytes)"
scalar QosShowcaseIPv6.ap.wlan[0].mac.hcf.edca.edcaf[1] packetSentToPeerWithoutRetry:count 6
attr interpolationmode none
attr recordingmode count
attr source ieee80211NotRetry(packetSentToPeer)
attr title "packets sent: without retry, count"
scalar QosShowcaseIPv6.ap.wlan[0].mac.hcf.edca.edcaf[1] packetSentToPeerWithoutRetry:sum(packetBytes) 628
attr interpolationmode none
attr recordingmode sum(packetBytes)
attr source ieee80211NotRetry(packetSentToPeer)
attr title "packets sent: without retry, sum(packetBytes)"
scalar QosShowcaseIPv6.ap.wlan[0].mac.hcf.edca.edcaf[1] channelOwnershipChanged:count 12
attr interpolationmode sample-hold
attr recordingmode count
attr title "channel ownership, count"
par QosShowcaseIPv6.ap.wlan[0].mac.hcf.edca.edcaf[2].pendingQueue typename "\"inet.linklayer.ieee80211.mac.queue.PendingQueue\""
par QosShowcaseIPv6.ap.wlan[0].mac.hcf.edca.edcaf[2].pendingQueue displayStringTextFormat "\"contains %p pk (%l) pushed %u\\npulled %o removed %r dropped %d\""
par QosShowcaseIPv6.ap.wlan[0].mac.hcf.edca.edcaf[2].pendingQueue packetCapacity 100
par QosShowcaseIPv6.ap.wlan[0].mac.hcf.edca.edcaf[2].pendingQueue dataCapacity -1b
attr unit b
par QosShowcaseIPv6.ap.wlan[0].mac.hcf.edca.edcaf[2].pendingQueue dropperClass "\"inet::queueing::PacketAtCollectionEndDropper\""
par QosShowcaseIPv6.ap.wlan[0].mac.hcf.edca.edcaf[2].pendingQueue comparatorClass "\"inet::ieee80211::MgmtOverDataComparator\""
par QosShowcaseIPv6.ap.wlan[0].mac.hcf.edca.edcaf[2].pendingQueue bufferModule "\"\""
scalar QosShowcaseIPv6.ap.wlan[0].mac.hcf.edca.edcaf[2].pendingQueue queueLength:last 0
attr autoWarmupFilter false
attr interpolationmode sample-hold
attr recordingmode last
attr source "warmup(atomic(constant0(packetPushEnded) + count(packetPushStarted) - count(packetPulled) - count(packetRemoved) - count(packetDropped)))"
attr title "queue length, last"
attr unit pk
scalar QosShowcaseIPv6.ap.wlan[0].mac.hcf.edca.edcaf[2].pendingQueue queueLength:max 0
attr autoWarmupFilter false
attr interpolationmode sample-hold
attr recordingmode max
attr source "warmup(atomic(constant0(packetPushEnded) + count(packetPushStarted) - count(packetPulled) - count(packetRemoved) - count(packetDropped)))"
attr title "queue length, max"
attr unit pk
scalar QosShowcaseIPv6.ap.wlan[0].mac.hcf.edca.edcaf[2].pendingQueue queueLength:timeavg 0
attr autoWarmupFilter false
attr interpolationmode sample-hold
attr recordingmode timeavg
attr source "warmup(atomic(constant0(packetPushEnded) + count(packetPushStarted) - count(packetPulled) - count(packetRemoved) - count(packetDropped)))"
attr title "queue length, timeavg"
attr unit pk
scalar QosShowcaseIPv6.ap.wlan[0].mac.hcf.edca.edcaf[2].pendingQueue queueBitLength:last 0
attr autoWarmupFilter false
attr interpolationmode sample-hold
attr recordingmode last
attr source "warmup(atomic(constant0(packetPushEnded) + sum(packetLength(packetPushStarted)) - sum(packetLength(packetPulled)) - sum(packetLength(packetRemoved)) - sum(packetLength(packetDropped))))"
attr title "queue bit length, last"
attr unit b
scalar QosShowcaseIPv6.ap.wlan[0].mac.hcf.edca.edcaf[2].pendingQueue queueBitLength:max 0
attr autoWarmupFilter false
attr interpolationmode sample-hold
attr recordingmode max
attr source "warmup(atomic(constant0(packetPushEnded) + sum(packetLength(packetPushStarted)) - sum(packetLength(packetPulled)) - sum(packetLength(packetRemoved)) - sum(packetLength(packetDropped))))"
attr title "queue bit length, max"
attr unit b
scalar QosShowcaseIPv6.ap.wlan[0].mac.hcf.edca.edcaf[2].pendingQueue queueBitLength:timeavg 0
attr autoWarmupFilter false
attr interpolationmode sample-hold
attr recordingmode timeavg
attr source "warmup(atomic(constant0(packetPushEnded) + sum(packetLength(packetPushStarted)) - sum(packetLength(packetPulled)) - sum(packetLength(packetRemoved)) - sum(packetLength(packetDropped))))"
attr title "queue bit length, timeavg"
attr unit b
statistic QosShowcaseIPv6.ap.wlan[0].mac.hcf.edca.edcaf[2].pendingQueue queueingTime:histogram
field count 0
field mean nan
field stddev nan
field min nan
field max nan
field sum 0
field sqrsum 0
attr interpolationmode none
attr recordingmode histogram
attr source queueingTime(packetPulled)
attr title "queueing times"
attr unit s
bin	-inf	0
bin	0	0
bin	1	0
scalar QosShowcaseIPv6.ap.wlan[0].mac.hcf.edca.edcaf[2].pendingQueue outgoingPackets:count 0
attr recordingmode count
attr source packetPulled
attr title "outgoing packets, count"
attr unit pk
scalar QosShowcaseIPv6.ap.wlan[0].mac.hcf.edca.edcaf[2].pendingQueue outgoingPacketLengths:sum 0
attr interpolationmode none
attr recordingmode sum
attr source packetLength(packetPulled)
attr title "outgoing packet lengths, sum"
attr unit b
statistic QosShowcaseIPv6.ap.wlan[0].mac.hcf.edca.edcaf[2].pendingQueue outgoingPacketLengths:histogram
field count 0
field mean nan
field stddev nan
field min nan
field max nan
field sum 0
field sqrsum 0
attr interpolationmode none
attr recordingmode histogram
attr source packetLength(packetPulled)
attr title "outgoing packet lengths"
attr unit b
bin	-inf	0
bin	0	0
bin	1	0
statistic QosShowcaseIPv6.ap.wlan[0].mac.hcf.edca.edcaf[2].pendingQueue flowQueueingTime:histogram
field count 0
field mean nan
field stddev nan
field min nan
field max nan
field sum 0
field sqrsum 0
attr interpolationmode none
attr recordingmode histogram
attr source queueingTime(demuxFlow(packetPulled))
attr title "flow queueing times"
attr unit s
bin	-inf	0
bin	0	0
bin	1	0
scalar QosShowcaseIPv6.ap.wlan[0].mac.hcf.edca.edcaf[2].pendingQueue incomingPackets:count 0
attr recordingmode count
attr source packetPushStarted
attr title "incoming packets, count"
attr unit pk
scalar QosShowcaseIPv6.ap.wlan[0].mac.hcf.edca.edcaf[2].pendingQueue incomingPacketLengths:sum 0
attr interpolationmode none
attr recordingmode sum
attr source packetLength(packetPushStarted)
attr title "incoming packet lengths, sum"
attr unit b
statistic QosShowcaseIPv6.ap.wlan[0].mac.hcf.edca.edcaf[2].pendingQueue incomingPacketLengths:histogram
field count 0
field mean nan
field stddev nan
field min nan
field max nan
field sum 0
field sqrsum 0
attr interpolationmode none
attr recordingmode histogram
attr source packetLength(packetPushStarted)
attr title "incoming packet lengths"
attr unit b
bin	-inf	0
bin	0	0
bin	1	0
scalar QosShowcaseIPv6.ap.wlan[0].mac.hcf.edca.edcaf[2].pendingQueue droppedPacketsQueueOverflow:count 0
attr interpolationmode none
attr recordingmode count
attr source packetDropReasonIsQueueOverflow(packetDropped)
attr title "dropped packets: queue overflow, count"
attr unit pk
scalar QosShowcaseIPv6.ap.wlan[0].mac.hcf.edca.edcaf[2].pendingQueue droppedPacketLengthsQueueOverflow:sum 0
attr interpolationmode none
attr recordingmode sum
attr source packetLength(packetDropReasonIsQueueOverflow(packetDropped))
attr title "dropped packet lengths: queue overflow, sum"
attr unit b
par QosShowcaseIPv6.ap.wlan[0].mac.hcf.edca.edcaf[2].inProgressFrames typename "\"inet.linklayer.ieee80211.mac.queue.InProgressFrames\""
par QosShowcaseIPv6.ap.wlan[0].mac.hcf.edca.edcaf[2].inProgressFrames pendingQueueModule "\"^.pendingQueue\""
par QosShowcaseIPv6.ap.wlan[0].mac.hcf.edca.edcaf[2].inProgressFrames originatorMacDataServiceModule "\"^.^.^.originatorMacDataService\""
par QosShowcaseIPv6.ap.wlan[0].mac.hcf.edca.edcaf[2].inProgressFrames ackHandlerModule "\"^.ackHandler\""
statistic QosShowcaseIPv6.ap.wlan[0].mac.hcf.edca.edcaf[2].inProgressFrames queueingTime:histogram
field count 0
field mean nan
field stddev nan
field min nan
field max nan
field sum 0
field sqrsum 0
attr interpolationmode none
attr recordingmode histogram
attr source queueingTime(packetDequeued)
attr title "queueing times"
bin	-inf	0
bin	0	0
bin	1	0
scalar QosShowcaseIPv6.ap.wlan[0].mac.hcf.edca.edcaf[2].inProgressFrames queueLength:max 0
attr autoWarmupFilter false
attr interpolationmode sample-hold
attr recordingmode max
attr source "warmup(count(packetEnqueued) - count(packetDequeued))"
attr title "queue length, max"
scalar QosShowcaseIPv6.ap.wlan[0].mac.hcf.edca.edcaf[2].inProgressFrames queueLength:timeavg 0
attr autoWarmupFilter false
attr interpolationmode sample-hold
attr recordingmode timeavg
attr source "warmup(count(packetEnqueued) - count(packetDequeued))"
attr title "queue length, timeavg"
par QosShowcaseIPv6.ap.wlan[0].mac.hcf.edca.edcaf[2].contention typename "\"inet.linklayer.ieee80211.mac.contention.Contention\""
par QosShowcaseIPv6.ap.wlan[0].mac.hcf.edca.edcaf[2].contention initialChannelBusy true
par QosShowcaseIPv6.ap.wlan[0].mac.hcf.edca.edcaf[2].contention backoffOptimization true
scalar QosShowcaseIPv6.ap.wlan[0].mac.hcf.edca.edcaf[2].contention channelAccessGranted:count 0
attr recordingmode count
attr title "channel access granted, count"
scalar QosShowcaseIPv6.ap.wlan[0].mac.hcf.edca.edcaf[2].contention stateChanged:count 250
attr enum IDLE,DEFER,IFS_AND_BACKOFF
attr interpolationmode none
attr recordingmode count
attr title "contention state changed, count"
attr type enum
par QosShowcaseIPv6.ap.wlan[0].mac.hcf.edca.edcaf[2].ackHandler typename "\"inet.linklayer.ieee80211.mac.originator.QosAckHandler\""
par QosShowcaseIPv6.ap.wlan[0].mac.hcf.edca.edcaf[2].txopProcedure typename "\"inet.linklayer.ieee80211.mac.originator.TxopProcedure\""
par QosShowcaseIPv6.ap.wlan[0].mac.hcf.edca.edcaf[2].txopProcedure txopLimit -1s
attr unit s
scalar QosShowcaseIPv6.ap.wlan[0].mac.hcf.edca.edcaf[2].txopProcedure txopEnded:count 0
attr interpolationmode none
attr recordingmode count
attr source txopEnded
attr title "txops ended, count"
statistic QosShowcaseIPv6.ap.wlan[0].mac.hcf.edca.edcaf[2].txopProcedure txopDuration:histogram
field count 0
field mean nan
field stddev nan
field min nan
field max nan
field sum 0
field sqrsum 0
attr interpolationmode none
attr recordingmode histogram
attr source txopDuration(txopEnded)
attr title "txop duration"
bin	-inf	0
bin	0	0
bin	1	0
par QosShowcaseIPv6.ap.wlan[0].mac.hcf.edca.edcaf[2].recoveryProcedure typename "\"inet.linklayer.ieee80211.mac.originator.QosRecoveryProcedure\""
par QosShowcaseIPv6.ap.wlan[0].mac.hcf.edca.edcaf[2].recoveryProcedure cwCalculatorModule "\"^\""
par QosShowcaseIPv6.ap.wlan[0].mac.hcf.edca.edcaf[2].recoveryProcedure rtsPolicyModule "\"^.^.^.rtsPolicy\""
par QosShowcaseIPv6.ap.wlan[0].mac.hcf.edca.edcaf[2].recoveryProcedure shortRetryLimit 7
par QosShowcaseIPv6.ap.wlan[0].mac.hcf.edca.edcaf[2].recoveryProcedure longRetryLimit 4
scalar QosShowcaseIPv6.ap.wlan[0].mac.hcf.edca.edcaf[2].recoveryProcedure retryLimitReached:count 0
attr recordingmode count
attr title "retry limit reached, count"
par QosShowcaseIPv6.ap.wlan[0].mac.hcf.edca.edcaf[2] typename "\"inet.linklayer.ieee80211.mac.channelaccess.Edcaf\""
par QosShowcaseIPv6.ap.wlan[0].mac.hcf.edca.edcaf[2] rxModule "\"^.^.^.rx\""
par QosShowcaseIPv6.ap.wlan[0].mac.hcf.edca.edcaf[2] collisionControllerModule "\"^.collisionController\""
par QosShowcaseIPv6.ap.wlan[0].mac.hcf.edca.edcaf[2] originatorMacDataServiceModule "\"^.^.originatorMacDataService\""
par QosShowcaseIPv6.ap.wlan[0].mac.hcf.edca.edcaf[2] accessCategory "\"AC_VI\""
attr enum AC_BK,AC_BE,AC_VI,AC_VO
par QosShowcaseIPv6.ap.wlan[0].mac.hcf.edca.edcaf[2] aifsn -1
par QosShowcaseIPv6.ap.wlan[0].mac.hcf.edca.edcaf[2] cwMin -1
par QosShowcaseIPv6.ap.wlan[0].mac.hcf.edca.edcaf[2] cwMax -1
scalar QosShowcaseIPv6.ap.wlan[0].mac.hcf.edca.edcaf[2] packetSentToPeer:count 0
attr interpolationmode none
attr recordingmode count
attr title "packets sent, count"
scalar QosShowcaseIPv6.ap.wlan[0].mac.hcf.edca.edcaf[2] packetSentToPeer:sum(packetBytes) 0
attr interpolationmode none
attr recordingmode sum(packetBytes)
attr title "packets sent, sum(packetBytes)"
scalar QosShowcaseIPv6.ap.wlan[0].mac.hcf.edca.edcaf[2] packetSentToPeerUnicast:count 0
attr interpolationmode none
attr recordingmode count
attr source ieee80211Unicast(packetSentToPeer)
attr title "packets sent: unicast, count"
scalar QosShowcaseIPv6.ap.wlan[0].mac.hcf.edca.edcaf[2] packetSentToPeerUnicast:sum(packetBytes) 0
attr interpolationmode none
attr recordingmode sum(packetBytes)
attr source ieee80211Unicast(packetSentToPeer)
attr title "packets sent: unicast, sum(packetBytes)"
scalar QosShowcaseIPv6.ap.wlan[0].mac.hcf.edca.edcaf[2] packetSentToPeerMulticast:count 0
attr interpolationmode none
attr recordingmode count
attr source ieee80211Multicast(packetSentToPeer)
attr title "packets sent: multicast, count"
scalar QosShowcaseIPv6.ap.wlan[0].mac.hcf.edca.edcaf[2] packetSentToPeerMulticast:sum(packetBytes) 0
attr interpolationmode none
attr recordingmode sum(packetBytes)
attr source ieee80211Multicast(packetSentToPeer)
attr title "packets sent: multicast, sum(packetBytes)"
scalar QosShowcaseIPv6.ap.wlan[0].mac.hcf.edca.edcaf[2] packetSentToPeerBroadcast:count 0
attr interpolationmode none
attr recordingmode count
attr source ieee80211Broadcast(packetSentToPeer)
attr title "packets sent: broadcast , count"
scalar QosShowcaseIPv6.ap.wlan[0].mac.hcf.edca.edcaf[2] packetSentToPeerBroadcast:sum(packetBytes) 0
attr interpolationmode none
attr recordingmode sum(packetBytes)
attr source ieee80211Broadcast(packetSentToPeer)
attr title "packets sent: broadcast , sum(packetBytes)"
scalar QosShowcaseIPv6.ap.wlan[0].mac.hcf.edca.edcaf[2] packetSentToPeerWithRetry:count 0
attr interpolationmode none
attr recordingmode count
attr source ieee80211Retry(packetSentToPeer)
attr title "packets sent: with retry, count"
scalar QosShowcaseIPv6.ap.wlan[0].mac.hcf.edca.edcaf[2] packetSentToPeerWithRetry:sum(packetBytes) 0
attr interpolationmode none
attr recordingmode sum(packetBytes)
attr source ieee80211Retry(packetSentToPeer)
attr title "packets sent: with retry, sum(packetBytes)"
scalar QosShowcaseIPv6.ap.wlan[0].mac.hcf.edca.edcaf[2] packetSentToPeerWithoutRetry:count 0
attr interpolationmode none
attr recordingmode count
attr source ieee80211NotRetry(packetSentToPeer)
attr title "packets sent: without retry, count"
scalar QosShowcaseIPv6.ap.wlan[0].mac.hcf.edca.edcaf[2] packetSentToPeerWithoutRetry:sum(packetBytes) 0
attr interpolationmode none
attr recordingmode sum(packetBytes)
attr source ieee80211NotRetry(packetSentToPeer)
attr title "packets sent: without retry, sum(packetBytes)"
scalar QosShowcaseIPv6.ap.wlan[0].mac.hcf.edca.edcaf[2] channelOwnershipChanged:count 0
attr interpolationmode sample-hold
attr recordingmode count
attr title "channel ownership, count"
par QosShowcaseIPv6.ap.wlan[0].mac.hcf.edca.edcaf[3].pendingQueue typename "\"inet.linklayer.ieee80211.mac.queue.PendingQueue\""
par QosShowcaseIPv6.ap.wlan[0].mac.hcf.edca.edcaf[3].pendingQueue displayStringTextFormat "\"contains %p pk (%l) pushed %u\\npulled %o removed %r dropped %d\""
par QosShowcaseIPv6.ap.wlan[0].mac.hcf.edca.edcaf[3].pendingQueue packetCapacity 100
par QosShowcaseIPv6.ap.wlan[0].mac.hcf.edca.edcaf[3].pendingQueue dataCapacity -1b
attr unit b
par QosShowcaseIPv6.ap.wlan[0].mac.hcf.edca.edcaf[3].pendingQueue dropperClass "\"inet::queueing::PacketAtCollectionEndDropper\""
par QosShowcaseIPv6.ap.wlan[0].mac.hcf.edca.edcaf[3].pendingQueue comparatorClass "\"inet::ieee80211::MgmtOverDataComparator\""
par QosShowcaseIPv6.ap.wlan[0].mac.hcf.edca.edcaf[3].pendingQueue bufferModule "\"\""
scalar QosShowcaseIPv6.ap.wlan[0].mac.hcf.edca.edcaf[3].pendingQueue queueLength:last 0
attr autoWarmupFilter false
attr interpolationmode sample-hold
attr recordingmode last
attr source "warmup(atomic(constant0(packetPushEnded) + count(packetPushStarted) - count(packetPulled) - count(packetRemoved) - count(packetDropped)))"
attr title "queue length, last"
attr unit pk
scalar QosShowcaseIPv6.ap.wlan[0].mac.hcf.edca.edcaf[3].pendingQueue queueLength:max 1
attr autoWarmupFilter false
attr interpolationmode sample-hold
attr recordingmode max
attr source "warmup(atomic(constant0(packetPushEnded) + count(packetPushStarted) - count(packetPulled) - count(packetRemoved) - count(packetDropped)))"
attr title "queue length, max"
attr unit pk
scalar QosShowcaseIPv6.ap.wlan[0].mac.hcf.edca.edcaf[3].pendingQueue queueLength:timeavg 0.00062537965873625
attr autoWarmupFilter false
attr interpolationmode sample-hold
attr recordingmode timeavg
attr source "warmup(atomic(constant0(packetPushEnded) + count(packetPushStarted) - count(packetPulled) - count(packetRemoved) - count(packetDropped)))"
attr title "queue length, timeavg"
attr unit pk
scalar QosShowcaseIPv6.ap.wlan[0].mac.hcf.edca.edcaf[3].pendingQueue queueBitLength:last 0
attr autoWarmupFilter false
attr interpolationmode sample-hold
attr recordingmode last
attr source "warmup(atomic(constant0(packetPushEnded) + sum(packetLength(packetPushStarted)) - sum(packetLength(packetPulled)) - sum(packetLength(packetRemoved)) - sum(packetLength(packetDropped))))"
attr title "queue bit length, last"
attr unit b
scalar QosShowcaseIPv6.ap.wlan[0].mac.hcf.edca.edcaf[3].pendingQueue queueBitLength:max 448
attr autoWarmupFilter false
attr interpolationmode sample-hold
attr recordingmode max
attr source "warmup(atomic(constant0(packetPushEnded) + sum(packetLength(packetPushStarted)) - sum(packetLength(packetPulled)) - sum(packetLength(packetRemoved)) - sum(packetLength(packetDropped))))"
attr title "queue bit length, max"
attr unit b
scalar QosShowcaseIPv6.ap.wlan[0].mac.hcf.edca.edcaf[3].pendingQueue queueBitLength:timeavg 0.20517248049939
attr autoWarmupFilter false
attr interpolationmode sample-hold
attr recordingmode timeavg
attr source "warmup(atomic(constant0(packetPushEnded) + sum(packetLength(packetPushStarted)) - sum(packetLength(packetPulled)) - sum(packetLength(packetRemoved)) - sum(packetLength(packetDropped))))"
attr title "queue bit length, timeavg"
attr unit b
statistic QosShowcaseIPv6.ap.wlan[0].mac.hcf.edca.edcaf[3].pendingQueue queueingTime:histogram
field count 28
field mean 4.4714285714286e-05
field stddev 7.6474569553282e-05
field min 0
field max 0.000234
field sum 0.001252
field sqrsum 2.13888e-07
attr interpolationmode none
attr recordingmode histogram
attr source queueingTime(packetPulled)
attr title "queueing times"
attr unit s
bin	-inf	0
bin	0	20
bin	5e-06	0
bin	1e-05	0
bin	1.5e-05	0
bin	2e-05	0
bin	2.5e-05	0
bin	3e-05	0
bin	3.5e-05	0
bin	4e-05	0
bin	4.5e-05	0
bin	5e-05	0
bin	5.5e-05	0
bin	6e-05	0
bin	6.5e-05	0
bin	7e-05	0
bin	7.5e-05	0
bin	8e-05	0
bin	8.5e-05	0
bin	9e-05	2
bin	9.5e-05	0
bin	0.0001	0
bin	0.000105	0
bin	0.00011	0
bin	0.000115	0
bin	0.00012	0
bin	0.000125	0
bin	0.00013	1
bin	0.000135	0
bin	0.00014	0
bin	0.000145	0
bin	0.00015	2
bin	0.000155	0
bin	0.00016	0
bin	0.000165	0
bin	0.00017	1
bin	0.000175	0
bin	0.00018	0
bin	0.000185	0
bin	0.00019	0
bin	0.000195	0
bin	0.0002	0
bin	0.000205	0
bin	0.00021	1
bin	0.000215	0
bin	0.00022	0
bin	0.000225	0
bin	0.00023	1
bin	0.000235	0
bin	0.00024	0
bin	0.000245	0
bin	0.00025	0
bin	0.000255	0
bin	0.00026	0
bin	0.000265	0
bin	0.00027	0
bin	0.000275	0
bin	0.00028	0
bin	0.000285	0
bin	0.00029	0
bin	0.000295	0
scalar QosShowcaseIPv6.ap.wlan[0].mac.hcf.edca.edcaf[3].pendingQueue outgoingPackets:count 28
[...]
attr unit s
par QosShowcaseIPv6.visualizer.physicalLinkVisualizer fadeOutAnimationSpeed 0
par QosShowcaseIPv6.visualizer.physicalLinkVisualizer holdAnimationTime 0s
attr unit s
par QosShowcaseIPv6.visualizer.physicalLinkVisualizer zIndex 1
par QosShowcaseIPv6.visualizer.interfaceTableVisualizer typename "\"inet.visualizer.canvas.linklayer.InterfaceTableCanvasVisualizer\""
par QosShowcaseIPv6.visualizer.interfaceTableVisualizer visualizationTargetModule "\"^.^\""
par QosShowcaseIPv6.visualizer.interfaceTableVisualizer visualizationSubjectModule "\"^.^\""
par QosShowcaseIPv6.visualizer.interfaceTableVisualizer tags "\"\""
par QosShowcaseIPv6.visualizer.interfaceTableVisualizer networkNodeVisualizerModule "\"^.networkNodeVisualizer\""
par QosShowcaseIPv6.visualizer.interfaceTableVisualizer displayInterfaceTables false
par QosShowcaseIPv6.visualizer.interfaceTableVisualizer displayWiredInterfacesAtConnections true
par QosShowcaseIPv6.visualizer.interfaceTableVisualizer displayBackground false
par QosShowcaseIPv6.visualizer.interfaceTableVisualizer nodeFilter "\"*\""
attr mutable ""
par QosShowcaseIPv6.visualizer.interfaceTableVisualizer interfaceFilter "\"not(lo*)\""
attr mutable ""
par QosShowcaseIPv6.visualizer.interfaceTableVisualizer format "\"%N %\\\\%a%/%l\""
attr mutable ""
par QosShowcaseIPv6.visualizer.interfaceTableVisualizer placementHint "\"top\""
par QosShowcaseIPv6.visualizer.interfaceTableVisualizer placementPriority 0
par QosShowcaseIPv6.visualizer.interfaceTableVisualizer font "\"<default>\""
par QosShowcaseIPv6.visualizer.interfaceTableVisualizer textColor "\"#005030\""
par QosShowcaseIPv6.visualizer.interfaceTableVisualizer backgroundColor "\"white\""
par QosShowcaseIPv6.visualizer.interfaceTableVisualizer opacity 1
par QosShowcaseIPv6.visualizer.interfaceTableVisualizer zIndex 10
par QosShowcaseIPv6.visualizer.interfaceTableVisualizer anchor "\"l\""
attr enum l,r,t
par QosShowcaseIPv6.visualizer.dataLinkVisualizer typename "\"inet.visualizer.canvas.linklayer.DataLinkCanvasVisualizer\""
par QosShowcaseIPv6.visualizer.dataLinkVisualizer visualizationTargetModule "\"^.^\""
par QosShowcaseIPv6.visualizer.dataLinkVisualizer visualizationSubjectModule "\"^.^\""
par QosShowcaseIPv6.visualizer.dataLinkVisualizer tags "\"\""
par QosShowcaseIPv6.visualizer.dataLinkVisualizer displayLinks false
par QosShowcaseIPv6.visualizer.dataLinkVisualizer activityLevel "\"service\""
attr enum service,peer,protocol
par QosShowcaseIPv6.visualizer.dataLinkVisualizer nodeFilter "\"*\""
attr mutable ""
par QosShowcaseIPv6.visualizer.dataLinkVisualizer interfaceFilter "\"*\""
attr mutable ""
par QosShowcaseIPv6.visualizer.dataLinkVisualizer packetFilter "(omnetpp::cValueHolder)holder: \"*\""
attr mutable ""
par QosShowcaseIPv6.visualizer.dataLinkVisualizer lineColor "\"darkcyan\""
par QosShowcaseIPv6.visualizer.dataLinkVisualizer lineStyle "\"solid\""
par QosShowcaseIPv6.visualizer.dataLinkVisualizer lineWidth 3
par QosShowcaseIPv6.visualizer.dataLinkVisualizer lineShift 16
par QosShowcaseIPv6.visualizer.dataLinkVisualizer lineShiftMode "\"normal\""
par QosShowcaseIPv6.visualizer.dataLinkVisualizer lineContactSpacing 3
par QosShowcaseIPv6.visualizer.dataLinkVisualizer lineContactMode "\"rectangular\""
attr enum circular,rectangular
par QosShowcaseIPv6.visualizer.dataLinkVisualizer labelFormat "\"%n\""
par QosShowcaseIPv6.visualizer.dataLinkVisualizer labelFont "\"<default>, 8px\""
par QosShowcaseIPv6.visualizer.dataLinkVisualizer labelColor "\"darkcyan\""
par QosShowcaseIPv6.visualizer.dataLinkVisualizer fadeOutMode "\"realTime\""
attr enum realTime,animationTime,simulationTime
par QosShowcaseIPv6.visualizer.dataLinkVisualizer fadeOutTime 1s
attr unit s
par QosShowcaseIPv6.visualizer.dataLinkVisualizer fadeOutAnimationSpeed 0
par QosShowcaseIPv6.visualizer.dataLinkVisualizer holdAnimationTime 0s
attr unit s
par QosShowcaseIPv6.visualizer.dataLinkVisualizer zIndex 2
par QosShowcaseIPv6.visualizer.linkBreakVisualizer typename "\"inet.visualizer.canvas.linklayer.LinkBreakCanvasVisualizer\""
par QosShowcaseIPv6.visualizer.linkBreakVisualizer visualizationTargetModule "\"^.^\""
par QosShowcaseIPv6.visualizer.linkBreakVisualizer visualizationSubjectModule "\"^.^\""
par QosShowcaseIPv6.visualizer.linkBreakVisualizer tags "\"\""
par QosShowcaseIPv6.visualizer.linkBreakVisualizer displayLinkBreaks false
par QosShowcaseIPv6.visualizer.linkBreakVisualizer nodeFilter "\"*\""
attr mutable ""
par QosShowcaseIPv6.visualizer.linkBreakVisualizer interfaceFilter "\"*\""
attr mutable ""
par QosShowcaseIPv6.visualizer.linkBreakVisualizer packetFilter "(omnetpp::cValueHolder)holder: \"*\""
attr mutable ""
par QosShowcaseIPv6.visualizer.linkBreakVisualizer icon "\"status/stop\""
par QosShowcaseIPv6.visualizer.linkBreakVisualizer iconTintAmount 0
par QosShowcaseIPv6.visualizer.linkBreakVisualizer iconTintColor "\"\""
par QosShowcaseIPv6.visualizer.linkBreakVisualizer fadeOutMode "\"realTime\""
attr enum realTime,animationTime,simulationTime
par QosShowcaseIPv6.visualizer.linkBreakVisualizer fadeOutTime 1s
attr unit s
par QosShowcaseIPv6.visualizer.linkBreakVisualizer fadeOutAnimationSpeed 0
par QosShowcaseIPv6.visualizer.linkBreakVisualizer zIndex 2
par QosShowcaseIPv6.visualizer.ieee80211Visualizer typename "\"inet.visualizer.canvas.linklayer.Ieee80211CanvasVisualizer\""
par QosShowcaseIPv6.visualizer.ieee80211Visualizer visualizationTargetModule "\"^.^\""
par QosShowcaseIPv6.visualizer.ieee80211Visualizer visualizationSubjectModule "\"^.^\""
par QosShowcaseIPv6.visualizer.ieee80211Visualizer tags "\"\""
par QosShowcaseIPv6.visualizer.ieee80211Visualizer networkNodeVisualizerModule "\"^.networkNodeVisualizer\""
par QosShowcaseIPv6.visualizer.ieee80211Visualizer displayAssociations false
par QosShowcaseIPv6.visualizer.ieee80211Visualizer nodeFilter "\"*\""
attr mutable ""
par QosShowcaseIPv6.visualizer.ieee80211Visualizer interfaceFilter "\"*\""
attr mutable ""
par QosShowcaseIPv6.visualizer.ieee80211Visualizer minPower -85dBm
attr unit dBm
par QosShowcaseIPv6.visualizer.ieee80211Visualizer maxPower -50dBm
attr unit dBm
par QosShowcaseIPv6.visualizer.ieee80211Visualizer icons "\"misc/signal_power_0 misc/signal_power_1 misc/signal_power_2 misc/signal_power_3\""
par QosShowcaseIPv6.visualizer.ieee80211Visualizer iconColor "\"dark\""
par QosShowcaseIPv6.visualizer.ieee80211Visualizer labelFont "\"<default>\""
par QosShowcaseIPv6.visualizer.ieee80211Visualizer labelColor "\"black\""
par QosShowcaseIPv6.visualizer.ieee80211Visualizer placementHint "\"top\""
par QosShowcaseIPv6.visualizer.ieee80211Visualizer placementPriority 0
par QosShowcaseIPv6.visualizer.ieee80211Visualizer zIndex 2
par QosShowcaseIPv6.visualizer.networkRouteVisualizer typename "\"inet.visualizer.canvas.networklayer.NetworkRouteCanvasVisualizer\""
par QosShowcaseIPv6.visualizer.networkRouteVisualizer visualizationTargetModule "\"^.^\""
par QosShowcaseIPv6.visualizer.networkRouteVisualizer visualizationSubjectModule "\"^.^\""
par QosShowcaseIPv6.visualizer.networkRouteVisualizer tags "\"\""
par QosShowcaseIPv6.visualizer.networkRouteVisualizer displayRoutes false
par QosShowcaseIPv6.visualizer.networkRouteVisualizer startPathSignal "\"packetReceivedFromUpper\""
par QosShowcaseIPv6.visualizer.networkRouteVisualizer extendPathSignal "\"packetReceivedFromLower\""
par QosShowcaseIPv6.visualizer.networkRouteVisualizer endPathSignal "\"packetSentToUpper\""
par QosShowcaseIPv6.visualizer.networkRouteVisualizer nodeFilter "\"*\""
attr mutable ""
par QosShowcaseIPv6.visualizer.networkRouteVisualizer packetFilter "(omnetpp::cValueHolder)holder: \"*\""
attr mutable ""
par QosShowcaseIPv6.visualizer.networkRouteVisualizer lineColor "\"dark\""
par QosShowcaseIPv6.visualizer.networkRouteVisualizer lineStyle "\"solid\""
par QosShowcaseIPv6.visualizer.networkRouteVisualizer lineWidth 3
par QosShowcaseIPv6.visualizer.networkRouteVisualizer lineSmooth false
par QosShowcaseIPv6.visualizer.networkRouteVisualizer lineShift 16
par QosShowcaseIPv6.visualizer.networkRouteVisualizer lineShiftMode "\"normal\""
par QosShowcaseIPv6.visualizer.networkRouteVisualizer lineContactSpacing 3
par QosShowcaseIPv6.visualizer.networkRouteVisualizer lineContactMode "\"rectangular\""
attr enum circular,rectangular
par QosShowcaseIPv6.visualizer.networkRouteVisualizer labelFormat "\"%n\""
par QosShowcaseIPv6.visualizer.networkRouteVisualizer labelFont "\"<default>, 8px\""
par QosShowcaseIPv6.visualizer.networkRouteVisualizer labelColor "\"\""
par QosShowcaseIPv6.visualizer.networkRouteVisualizer fadeOutMode "\"realTime\""
attr enum realTime,animationTime,simulationTime
par QosShowcaseIPv6.visualizer.networkRouteVisualizer fadeOutTime 1s
attr unit s
par QosShowcaseIPv6.visualizer.networkRouteVisualizer fadeOutAnimationSpeed 0
par QosShowcaseIPv6.visualizer.networkRouteVisualizer zIndex 3
par QosShowcaseIPv6.visualizer.routingTableVisualizer typename "\"inet.visualizer.canvas.networklayer.RoutingTableCanvasVisualizer\""
par QosShowcaseIPv6.visualizer.routingTableVisualizer visualizationTargetModule "\"^.^\""
par QosShowcaseIPv6.visualizer.routingTableVisualizer visualizationSubjectModule "\"^.^\""
par QosShowcaseIPv6.visualizer.routingTableVisualizer tags "\"\""
par QosShowcaseIPv6.visualizer.routingTableVisualizer displayRoutingTables false
par QosShowcaseIPv6.visualizer.routingTableVisualizer displayRoutesIndividually true
par QosShowcaseIPv6.visualizer.routingTableVisualizer displayLabels true
par QosShowcaseIPv6.visualizer.routingTableVisualizer destinationFilter "\"*\""
attr mutable ""
par QosShowcaseIPv6.visualizer.routingTableVisualizer nodeFilter "\"*\""
attr mutable ""
par QosShowcaseIPv6.visualizer.routingTableVisualizer multicastSourceNodeFilter "\"*\""
attr mutable ""
par QosShowcaseIPv6.visualizer.routingTableVisualizer multicastSourceAddressFilter "\"*\""
attr mutable ""
par QosShowcaseIPv6.visualizer.routingTableVisualizer multicastGroupFilter "\"*\""
attr mutable ""
par QosShowcaseIPv6.visualizer.routingTableVisualizer lineColor "\"black\""
par QosShowcaseIPv6.visualizer.routingTableVisualizer lineStyle "\"solid\""
par QosShowcaseIPv6.visualizer.routingTableVisualizer lineWidth 2
par QosShowcaseIPv6.visualizer.routingTableVisualizer lineShift 16
par QosShowcaseIPv6.visualizer.routingTableVisualizer lineShiftMode "\"normal\""
par QosShowcaseIPv6.visualizer.routingTableVisualizer lineContactSpacing 3
par QosShowcaseIPv6.visualizer.routingTableVisualizer lineContactMode "\"rectangular\""
attr enum circular,rectangular
par QosShowcaseIPv6.visualizer.routingTableVisualizer labelFormat "\"%d/%m -> %g (%n)\""
attr mutable ""
par QosShowcaseIPv6.visualizer.routingTableVisualizer labelFont "\"<default>, 8px\""
par QosShowcaseIPv6.visualizer.routingTableVisualizer labelColor "\"black\""
par QosShowcaseIPv6.visualizer.routingTableVisualizer zIndex 0
par QosShowcaseIPv6.visualizer.transportRouteVisualizer typename "\"inet.visualizer.canvas.transportlayer.TransportRouteCanvasVisualizer\""
par QosShowcaseIPv6.visualizer.transportRouteVisualizer visualizationTargetModule "\"^.^\""
par QosShowcaseIPv6.visualizer.transportRouteVisualizer visualizationSubjectModule "\"^.^\""
par QosShowcaseIPv6.visualizer.transportRouteVisualizer tags "\"\""
par QosShowcaseIPv6.visualizer.transportRouteVisualizer displayRoutes false
par QosShowcaseIPv6.visualizer.transportRouteVisualizer startPathSignal "\"packetReceivedFromUpper\""
par QosShowcaseIPv6.visualizer.transportRouteVisualizer extendPathSignal "\"packetReceivedFromLower\""
par QosShowcaseIPv6.visualizer.transportRouteVisualizer endPathSignal "\"packetSentToUpper\""
par QosShowcaseIPv6.visualizer.transportRouteVisualizer nodeFilter "\"*\""
attr mutable ""
par QosShowcaseIPv6.visualizer.transportRouteVisualizer packetFilter "(omnetpp::cValueHolder)holder: \"*\""
attr mutable ""
par QosShowcaseIPv6.visualizer.transportRouteVisualizer lineColor "\"dark\""
par QosShowcaseIPv6.visualizer.transportRouteVisualizer lineStyle "\"solid\""
par QosShowcaseIPv6.visualizer.transportRouteVisualizer lineWidth 3
par QosShowcaseIPv6.visualizer.transportRouteVisualizer lineSmooth false
par QosShowcaseIPv6.visualizer.transportRouteVisualizer lineShift 16
par QosShowcaseIPv6.visualizer.transportRouteVisualizer lineShiftMode "\"normal\""
par QosShowcaseIPv6.visualizer.transportRouteVisualizer lineContactSpacing 3
par QosShowcaseIPv6.visualizer.transportRouteVisualizer lineContactMode "\"rectangular\""
attr enum circular,rectangular
par QosShowcaseIPv6.visualizer.transportRouteVisualizer labelFormat "\"%n\""
par QosShowcaseIPv6.visualizer.transportRouteVisualizer labelFont "\"<default>, 8px\""
par QosShowcaseIPv6.visualizer.transportRouteVisualizer labelColor "\"\""
par QosShowcaseIPv6.visualizer.transportRouteVisualizer fadeOutMode "\"realTime\""
attr enum realTime,animationTime,simulationTime
par QosShowcaseIPv6.visualizer.transportRouteVisualizer fadeOutTime 1s
attr unit s
par QosShowcaseIPv6.visualizer.transportRouteVisualizer fadeOutAnimationSpeed 0
par QosShowcaseIPv6.visualizer.transportRouteVisualizer zIndex 4
par QosShowcaseIPv6.visualizer.transportConnectionVisualizer typename "\"inet.visualizer.canvas.transportlayer.TransportConnectionCanvasVisualizer\""
par QosShowcaseIPv6.visualizer.transportConnectionVisualizer visualizationTargetModule "\"^.^\""
par QosShowcaseIPv6.visualizer.transportConnectionVisualizer visualizationSubjectModule "\"^.^\""
par QosShowcaseIPv6.visualizer.transportConnectionVisualizer tags "\"\""
par QosShowcaseIPv6.visualizer.transportConnectionVisualizer networkNodeVisualizerModule "\"^.networkNodeVisualizer\""
par QosShowcaseIPv6.visualizer.transportConnectionVisualizer displayTransportConnections false
par QosShowcaseIPv6.visualizer.transportConnectionVisualizer sourceNodeFilter "\"*\""
attr mutable ""
par QosShowcaseIPv6.visualizer.transportConnectionVisualizer sourcePortFilter "\"*\""
attr mutable ""
par QosShowcaseIPv6.visualizer.transportConnectionVisualizer destinationNodeFilter "\"*\""
attr mutable ""
par QosShowcaseIPv6.visualizer.transportConnectionVisualizer destinationPortFilter "\"*\""
attr mutable ""
par QosShowcaseIPv6.visualizer.transportConnectionVisualizer icon "\"misc/marker_s\""
par QosShowcaseIPv6.visualizer.transportConnectionVisualizer iconColor "\"dark\""
par QosShowcaseIPv6.visualizer.transportConnectionVisualizer labelFont "\"<default>\""
par QosShowcaseIPv6.visualizer.transportConnectionVisualizer labelColor "\"black\""
par QosShowcaseIPv6.visualizer.transportConnectionVisualizer placementHint "\"top\""
par QosShowcaseIPv6.visualizer.transportConnectionVisualizer placementPriority 0
par QosShowcaseIPv6.visualizer.transportConnectionVisualizer zIndex 4
par QosShowcaseIPv6.visualizer.failureProtectionConfigurationVisualizer typename "\"inet.visualizer.canvas.configurator.FailureProtectionConfigurationCanvasVisualizer\""
par QosShowcaseIPv6.visualizer.failureProtectionConfigurationVisualizer visualizationTargetModule "\"^.^\""
par QosShowcaseIPv6.visualizer.failureProtectionConfigurationVisualizer visualizationSubjectModule "\"^.^\""
par QosShowcaseIPv6.visualizer.failureProtectionConfigurationVisualizer tags "\"\""
par QosShowcaseIPv6.visualizer.failureProtectionConfigurationVisualizer displayTrees false
par QosShowcaseIPv6.visualizer.failureProtectionConfigurationVisualizer lineColor "\"dark\""
par QosShowcaseIPv6.visualizer.failureProtectionConfigurationVisualizer lineStyle "\"solid\""
par QosShowcaseIPv6.visualizer.failureProtectionConfigurationVisualizer lineWidth 3
par QosShowcaseIPv6.visualizer.failureProtectionConfigurationVisualizer lineSmooth false
par QosShowcaseIPv6.visualizer.failureProtectionConfigurationVisualizer lineShift 16
par QosShowcaseIPv6.visualizer.failureProtectionConfigurationVisualizer lineShiftMode "\"normal\""
par QosShowcaseIPv6.visualizer.failureProtectionConfigurationVisualizer lineContactSpacing 3
par QosShowcaseIPv6.visualizer.failureProtectionConfigurationVisualizer lineContactMode "\"rectangular\""
attr enum circular,rectangular
par QosShowcaseIPv6.visualizer.failureProtectionConfigurationVisualizer failureProtectionConfiguratorModule "\"failureProtectionConfigurator\""
par QosShowcaseIPv6.visualizer.failureProtectionConfigurationVisualizer streamFilter "\"*\""
par QosShowcaseIPv6.visualizer.failureProtectionConfigurationVisualizer zIndex 3
par QosShowcaseIPv6.visualizer.streamRedundancyConfigurationVisualizer typename "\"inet.visualizer.canvas.configurator.StreamRedundancyConfigurationCanvasVisualizer\""
par QosShowcaseIPv6.visualizer.streamRedundancyConfigurationVisualizer visualizationTargetModule "\"^.^\""
par QosShowcaseIPv6.visualizer.streamRedundancyConfigurationVisualizer visualizationSubjectModule "\"^.^\""
par QosShowcaseIPv6.visualizer.streamRedundancyConfigurationVisualizer tags "\"\""
par QosShowcaseIPv6.visualizer.streamRedundancyConfigurationVisualizer displayTrees false
par QosShowcaseIPv6.visualizer.streamRedundancyConfigurationVisualizer lineColor "\"dark\""
par QosShowcaseIPv6.visualizer.streamRedundancyConfigurationVisualizer lineStyle "\"solid\""
par QosShowcaseIPv6.visualizer.streamRedundancyConfigurationVisualizer lineWidth 3
par QosShowcaseIPv6.visualizer.streamRedundancyConfigurationVisualizer lineSmooth false
par QosShowcaseIPv6.visualizer.streamRedundancyConfigurationVisualizer lineShift 16
par QosShowcaseIPv6.visualizer.streamRedundancyConfigurationVisualizer lineShiftMode "\"normal\""
par QosShowcaseIPv6.visualizer.streamRedundancyConfigurationVisualizer lineContactSpacing 3
par QosShowcaseIPv6.visualizer.streamRedundancyConfigurationVisualizer lineContactMode "\"rectangular\""
attr enum circular,rectangular
par QosShowcaseIPv6.visualizer.streamRedundancyConfigurationVisualizer streamRedundancyConfiguratorModule "\"streamRedundancyConfigurator\""
par QosShowcaseIPv6.visualizer.streamRedundancyConfigurationVisualizer streamFilter "\"*\""
par QosShowcaseIPv6.visualizer.streamRedundancyConfigurationVisualizer zIndex 3
par QosShowcaseIPv6.visualizer.channelVisualizer typename "\"inet.visualizer.canvas.physicallayer.ChannelCanvasVisualizer\""
par QosShowcaseIPv6.visualizer.channelVisualizer visualizationTargetModule "\"^.^\""
par QosShowcaseIPv6.visualizer.channelVisualizer visualizationSubjectModule "\"^.^\""
par QosShowcaseIPv6.visualizer.channelVisualizer tags "\"\""
par QosShowcaseIPv6.visualizer.channelVisualizer displayChannelActivity false
par QosShowcaseIPv6.visualizer.channelVisualizer nodeFilter "\"*\""
attr mutable ""
par QosShowcaseIPv6.visualizer.channelVisualizer packetFilter "(omnetpp::cValueHolder)holder: \"*\""
attr mutable ""
par QosShowcaseIPv6.visualizer.channelVisualizer lineColor "\"blue\""
par QosShowcaseIPv6.visualizer.channelVisualizer lineStyle "\"solid\""
par QosShowcaseIPv6.visualizer.channelVisualizer lineWidth 3
par QosShowcaseIPv6.visualizer.channelVisualizer lineShift 16
par QosShowcaseIPv6.visualizer.channelVisualizer lineShiftMode "\"normal\""
par QosShowcaseIPv6.visualizer.channelVisualizer lineContactSpacing 3
par QosShowcaseIPv6.visualizer.channelVisualizer lineContactMode "\"rectangular\""
attr enum circular,rectangular
par QosShowcaseIPv6.visualizer.channelVisualizer labelFormat "\"%n\""
par QosShowcaseIPv6.visualizer.channelVisualizer labelFont "\"<default>, 8px\""
par QosShowcaseIPv6.visualizer.channelVisualizer labelColor "\"blue\""
par QosShowcaseIPv6.visualizer.channelVisualizer fadeOutMode "\"realTime\""
attr enum realTime,animationTime,simulationTime
par QosShowcaseIPv6.visualizer.channelVisualizer fadeOutTime 1s
attr unit s
par QosShowcaseIPv6.visualizer.channelVisualizer fadeOutAnimationSpeed 0
par QosShowcaseIPv6.visualizer.channelVisualizer holdAnimationTime 0s
attr unit s
par QosShowcaseIPv6.visualizer.channelVisualizer zIndex 1
par QosShowcaseIPv6.visualizer typename "\"inet.visualizer.canvas.integrated.IntegratedCanvasVisualizer\""
par QosShowcaseIPv6 typename "\"qos_implementation.simulations.QosShowcaseIPv6\""

